REMARK  Name = Abacavir
REMARK  4 active torsions:
REMARK  status: ('A' for Active; 'I' for Inactive)
REMARK    1  A    between atoms: C_3  and  N_4
REMARK    2  A    between atoms: N_4  and  C_5
REMARK    3  A    between atoms: N_12  and  C_15
REMARK    4  A    between atoms: C_17  and  C_20
REMARK                            x       y       z     vdW  Elec       q    Type
REMARK                         _______ _______ _______ _____ _____    ______ ____
ROOT
ATOM      1  C   UNL     1      44.424  79.697  39.285  0.00  0.00    +0.171 A 
ATOM      2  C   UNL     1      45.188  80.844  39.316  0.00  0.00    +0.150 A 
ATOM      3  C   UNL     1      46.022  81.135  40.382  0.00  0.00    +0.169 A 
ATOM      4  N   UNL     1      46.105  80.295  41.417  0.00  0.00    -0.192 NA
ATOM      5  C   UNL     1      45.357  79.167  41.390  0.00  0.00    +0.259 A 
ATOM      6  N   UNL     1      44.533  78.877  40.343  0.00  0.00    -0.193 NA
ATOM      7  N   UNL     1      45.381  78.222  42.440  0.00  0.00    -0.086 NA
ATOM      8  N   UNL     1      46.626  82.305  40.126  0.00  0.00    -0.292 N 
ATOM      9  C   UNL     1      46.182  82.737  38.933  0.00  0.00    +0.180 A 
ATOM     10  N   UNL     1      45.303  81.844  38.438  0.00  0.00    -0.219 NA
ENDROOT
BRANCH   8  11
ATOM     11  C   UNL     1      47.587  83.044  40.921  0.00  0.00    +0.111 C 
ATOM     12  C   UNL     1      48.959  82.615  40.449  0.00  0.00    +0.034 C 
ATOM     13  C   UNL     1      49.766  82.731  41.726  0.00  0.00    +0.057 C 
ATOM     14  C   UNL     1      48.770  82.525  42.795  0.00  0.00    -0.026 C 
ATOM     15  C   UNL     1      47.566  82.704  42.327  0.00  0.00    -0.008 C 
BRANCH  13  16
ATOM     16  C   UNL     1      50.778  81.607  41.825  0.00  0.00    +0.186 C 
ATOM     17  O   UNL     1      51.964  82.105  41.248  0.00  0.00    -0.220 OA
ENDBRANCH  13  16
ENDBRANCH   8  11
BRANCH   1  18
ATOM     18  N   UNL     1      43.568  79.400  38.191  0.00  0.00    -0.221 NA
BRANCH  18  21
ATOM     19  C   UNL     1      41.651  78.183  37.102  0.00  0.00    +0.023 C 
ATOM     20  C   UNL     1      41.386  78.266  38.546  0.00  0.00    +0.023 C 
ATOM     21  C   UNL     1      42.836  78.176  38.064  0.00  0.00    +0.094 C 
ENDBRANCH  18  21
ENDBRANCH   1  18
TORSDOF 4
