REMARK  Name = Abiraterone_acetate
REMARK  3 active torsions:
REMARK  status: ('A' for Active; 'I' for Inactive)
REMARK    1  A    between atoms: C_2  and  O_4
REMARK    2  A    between atoms: O_4  and  C_5
REMARK    3  A    between atoms: C_21  and  C_22
REMARK                            x       y       z     vdW  Elec       q    Type
REMARK                         _______ _______ _______ _____ _____    ______ ____
ROOT
ATOM      1  C   UNL     1      51.166  84.192  44.834  0.00  0.00    +0.173 C 
ATOM      2  C   UNL     1      50.927  84.805  43.501  0.00  0.00    +0.044 C 
ATOM      3  C   UNL     1      49.451  84.742  43.165  0.00  0.00    +0.007 C 
ATOM      4  C   UNL     1      49.022  83.284  43.284  0.00  0.00    +0.015 C 
ATOM      5  C   UNL     1      48.248  82.794  42.112  0.00  0.00    +0.004 C 
ATOM      6  C   UNL     1      47.232  81.794  42.564  0.00  0.00    +0.001 C 
ATOM      7  C   UNL     1      47.009  80.615  41.697  0.00  0.00    +0.004 C 
ATOM      8  C   UNL     1      47.199  80.767  40.233  0.00  0.00    +0.019 C 
ATOM      9  C   UNL     1      48.188  81.836  39.835  0.00  0.00    +0.008 C 
ATOM     10  C   UNL     1      49.052  82.339  40.942  0.00  0.00    +0.005 C 
ATOM     11  C   UNL     1      50.133  81.330  41.303  0.00  0.00    +0.025 C 
ATOM     12  C   UNL     1      50.696  81.615  42.647  0.00  0.00    -0.035 C 
ATOM     13  C   UNL     1      50.223  82.452  43.496  0.00  0.00    -0.046 C 
ATOM     14  C   UNL     1      50.934  82.672  44.803  0.00  0.00    +0.065 C 
ATOM     15  C   UNL     1      47.333  82.901  39.259  0.00  0.00    +0.026 C 
ATOM     16  C   UNL     1      46.038  82.248  38.970  0.00  0.00    -0.030 C 
ATOM     17  C   UNL     1      45.937  81.046  39.506  0.00  0.00    -0.026 C 
ATOM     18  C   UNL     1      47.701  79.407  39.702  0.00  0.00    +0.004 C 
ATOM     19  C   UNL     1      48.106  83.226  44.517  0.00  0.00    +0.004 C 
ENDROOT
BRANCH  17  20
ATOM     20  C   UNL     1      44.742  80.168  39.370  0.00  0.00    +0.015 A 
ATOM     21  C   UNL     1      44.266  79.407  40.400  0.00  0.00    +0.099 A 
ATOM     22  N   UNL     1      43.161  78.615  40.226  0.00  0.00    -0.242 NA
ATOM     23  C   UNL     1      42.517  78.560  39.050  0.00  0.00    +0.099 A 
ATOM     24  C   UNL     1      42.958  79.308  37.982  0.00  0.00    +0.021 A 
ATOM     25  C   UNL     1      44.066  80.096  38.174  0.00  0.00    +0.003 A 
ENDBRANCH  17  20
BRANCH   1  26
ATOM     26  O   UNL     1      52.487  84.363  45.305  0.00  0.00    -0.452 OA
BRANCH  26  28
ATOM     27  C   UNL     1      54.193  85.108  47.006  0.00  0.00    +0.121 C 
ATOM     28  C   UNL     1      52.861  85.206  46.314  0.00  0.00    +0.317 C 
ATOM     29  O   UNL     1      52.049  86.097  46.670  0.00  0.00    -0.250 OA
ENDBRANCH  26  28
ENDBRANCH   1  26
TORSDOF 3
