REMARK  Name = ABIRATERONE
REMARK  1 active torsions:
REMARK  status: ('A' for Active; 'I' for Inactive)
REMARK    1  A    between atoms: C_18  and  C_19
REMARK                            x       y       z     vdW  Elec       q    Type
REMARK                         _______ _______ _______ _____ _____    ______ ____
ROOT
ATOM      1  C   UNL     1      52.061  83.832  41.347  0.00  0.00    +0.004 C 
ATOM      2  C   UNL     1      51.154  83.154  42.392  0.00  0.00    +0.015 C 
ATOM      3  C   UNL     1      51.897  81.903  42.806  0.00  0.00    +0.006 C 
ATOM      4  C   UNL     1      52.380  82.010  44.249  0.00  0.00    +0.034 C 
ATOM      5  C   UNL     1      53.246  83.232  44.459  0.00  0.00    +0.156 C 
ATOM      6  C   UNL     1      52.396  84.463  44.240  0.00  0.00    +0.055 C 
ATOM      7  C   UNL     1      51.116  84.114  43.526  0.00  0.00    -0.047 C 
ATOM      8  C   UNL     1      50.028  84.710  43.983  0.00  0.00    -0.035 C 
ATOM      9  C   UNL     1      48.691  84.442  43.356  0.00  0.00    +0.025 C 
ATOM     10  C   UNL     1      48.762  83.038  42.871  0.00  0.00    +0.005 C 
ATOM     11  C   UNL     1      49.832  82.905  41.776  0.00  0.00    +0.004 C 
ATOM     12  C   UNL     1      49.631  81.548  41.182  0.00  0.00    +0.001 C 
ATOM     13  C   UNL     1      48.366  81.557  40.301  0.00  0.00    +0.004 C 
ATOM     14  C   UNL     1      47.249  82.311  40.958  0.00  0.00    +0.019 C 
ATOM     15  C   UNL     1      47.569  82.361  42.431  0.00  0.00    +0.008 C 
ATOM     16  C   UNL     1      46.251  82.794  42.971  0.00  0.00    +0.026 C 
ATOM     17  C   UNL     1      45.383  81.874  42.190  0.00  0.00    -0.030 C 
ATOM     18  C   UNL     1      45.949  81.584  41.016  0.00  0.00    -0.026 C 
ATOM     19  C   UNL     1      46.937  83.614  40.314  0.00  0.00    +0.004 C 
ATOM     20  O   UNL     1      54.356  83.269  43.652  0.00  0.00    -0.223 OA
ENDROOT
BRANCH  18  21
ATOM     21  C   UNL     1      45.327  80.704  40.043  0.00  0.00    +0.015 A 
ATOM     22  C   UNL     1      45.326  81.038  38.696  0.00  0.00    +0.099 A 
ATOM     23  N   UNL     1      44.779  80.222  37.748  0.00  0.00    -0.242 NA
ATOM     24  C   UNL     1      44.209  79.047  38.062  0.00  0.00    +0.099 A 
ATOM     25  C   UNL     1      44.193  78.682  39.386  0.00  0.00    +0.021 A 
ATOM     26  C   UNL     1      44.753  79.514  40.368  0.00  0.00    +0.003 A 
ENDBRANCH  18  21
TORSDOF 1
