REMARK  Name = Abrocitinib
REMARK  5 active torsions:
REMARK  status: ('A' for Active; 'I' for Inactive)
REMARK    1  A    between atoms: C_2  and  C_3
REMARK    2  A    between atoms: C_3  and  S_4
REMARK    3  A    between atoms: S_4  and  N_7
REMARK    4  A    between atoms: N_7  and  C_8
REMARK    5  A    between atoms: C_10  and  N_12
REMARK                            x       y       z     vdW  Elec       q    Type
REMARK                         _______ _______ _______ _____ _____    ______ ____
ROOT
ATOM      1  C   UNL     1      49.700  81.752  42.887  0.00  0.00    +0.101 C 
ATOM      2  C   UNL     1      49.125  81.744  41.462  0.00  0.00    +0.039 C 
ATOM      3  C   UNL     1      47.874  81.174  42.099  0.00  0.00    +0.077 C 
ATOM      4  C   UNL     1      48.774  80.546  43.133  0.00  0.00    +0.039 C 
ENDROOT
BRANCH   3   5
ATOM      5  N   UNL     1      47.034  80.350  41.320  0.00  0.00    -0.293 N 
ATOM      6  C   UNL     1      46.992  78.925  41.639  0.00  0.00    +0.113 C 
ATOM      7  C   UNL     1      46.229  80.792  40.258  0.00  0.00    +0.136 A 
ATOM      8  N   UNL     1      46.458  82.010  39.675  0.00  0.00    -0.209 NA
ATOM      9  C   UNL     1      45.724  82.505  38.684  0.00  0.00    +0.201 A 
ATOM     10  N   UNL     1      44.691  81.790  38.207  0.00  0.00    -0.205 NA
ATOM     11  C   UNL     1      44.406  80.576  38.735  0.00  0.00    +0.167 A 
ATOM     12  C   UNL     1      45.167  80.061  39.764  0.00  0.00    +0.069 A 
ATOM     13  C   UNL     1      44.641  78.814  40.075  0.00  0.00    +0.027 A 
ATOM     14  C   UNL     1      43.582  78.612  39.230  0.00  0.00    +0.101 A 
ATOM     15  N   UNL     1      43.440  79.672  38.423  0.00  0.00    -0.225 NA
ENDBRANCH   3   5
BRANCH   1  16
ATOM     16  N   UNL     1      51.090  81.472  42.982  0.00  0.00    -0.083 NA
BRANCH  16  17
ATOM     17  S   UNL     1      51.961  82.945  43.067  0.00  0.00    +0.057 S 
ATOM     18  O   UNL     1      52.765  83.007  44.326  0.00  0.00    -0.156 OA
ATOM     19  O   UNL     1      52.854  83.020  41.862  0.00  0.00    -0.156 OA
BRANCH  17  20
ATOM     20  C   UNL     1      50.843  84.312  42.997  0.00  0.00    +0.171 C 
BRANCH  20  22
ATOM     21  C   UNL     1      51.252  86.162  44.633  0.00  0.00    +0.002 C 
ATOM     22  C   UNL     1      51.568  85.616  43.270  0.00  0.00    +0.027 C 
ENDBRANCH  20  22
ENDBRANCH  17  20
ENDBRANCH  16  17
ENDBRANCH   1  16
TORSDOF 5
