REMARK  Name = ABT-335
REMARK  7 active torsions:
REMARK  status: ('A' for Active; 'I' for Inactive)
REMARK    1  A    between atoms: C_2  and  C_4
REMARK    2  A    between atoms: C_2  and  O_7
REMARK    3  A    between atoms: O_7  and  C_8
REMARK    4  A    between atoms: C_11  and  C_14
REMARK    5  A    between atoms: C_14  and  C_16
REMARK    6  A    between atoms: N_24  and  C_27
REMARK    7  A    between atoms: C_27  and  C_28
REMARK                            x       y       z     vdW  Elec       q    Type
REMARK                         _______ _______ _______ _____ _____    ______ ____
ROOT
ATOM      1  C   UNL     1      45.191  79.534  40.163  0.00  0.00    +0.139 A 
ATOM      2  C   UNL     1      45.590  80.331  39.123  0.00  0.00    +0.037 A 
ATOM      3  C   UNL     1      46.678  81.171  39.211  0.00  0.00    +0.006 A 
ATOM      4  C   UNL     1      47.435  81.252  40.379  0.00  0.00    +0.039 A 
ATOM      5  C   UNL     1      47.037  80.452  41.428  0.00  0.00    +0.006 A 
ATOM      6  C   UNL     1      45.947  79.610  41.339  0.00  0.00    +0.037 A 
ENDROOT
BRANCH   4   7
ATOM      7  C   UNL     1      48.594  82.123  40.468  0.00  0.00    +0.196 C 
ATOM      8  O   UNL     1      49.211  82.323  39.364  0.00  0.00    -0.287 OA
BRANCH   7   9
ATOM      9  C   UNL     1      49.075  82.754  41.684  0.00  0.00    +0.039 A 
ATOM     10  C   UNL     1      48.288  83.038  42.776  0.00  0.00    +0.004 A 
ATOM     11  C   UNL     1      48.806  83.624  43.923  0.00  0.00    +0.011 A 
ATOM     12  C   UNL     1      50.131  83.945  44.012  0.00  0.00    +0.058 A 
ATOM     13  C   UNL     1      50.950  83.671  42.924  0.00  0.00    +0.011 A 
ATOM     14  C   UNL     1      50.413  83.086  41.791  0.00  0.00    +0.004 A 
ATOM     15 CL   UNL     1      50.814  84.689  45.455  0.00  0.00    -0.082 Cl
ENDBRANCH   7   9
ENDBRANCH   4   7
BRANCH   1  16
ATOM     16  O   UNL     1      44.116  78.671  40.149  0.00  0.00    -0.472 OA
BRANCH  16  18
ATOM     17  C   UNL     1      45.242  76.678  39.520  0.00  0.00    +0.055 C 
ATOM     18  C   UNL     1      44.175  77.299  40.384  0.00  0.00    +0.225 C 
ATOM     19  C   UNL     1      42.845  76.639  40.012  0.00  0.00    +0.055 C 
BRANCH  18  20
ATOM     20  C   UNL     1      44.394  77.016  41.836  0.00  0.00    +0.400 C 
ATOM     21  O   UNL     1      45.447  76.424  42.221  0.00  0.00    -0.242 OA
ATOM     22  O   UNL     1      43.457  77.395  42.756  0.00  0.00    -0.242 OA
ENDBRANCH  18  20
ENDBRANCH  16  18
ENDBRANCH   1  16
TORSDOF 5
REMARK  Name = ABT-335
REMARK  7 active torsions:
REMARK  status: ('A' for Active; 'I' for Inactive)
REMARK    1  A    between atoms: C_2  and  C_4
REMARK    2  A    between atoms: C_2  and  O_7
REMARK    3  A    between atoms: O_7  and  C_8
REMARK    4  A    between atoms: C_11  and  C_14
REMARK    5  A    between atoms: C_14  and  C_16
REMARK    6  A    between atoms: N_24  and  C_27
REMARK    7  A    between atoms: C_27  and  C_28
REMARK                            x       y       z     vdW  Elec       q    Type
REMARK                         _______ _______ _______ _____ _____    ______ ____
ROOT
ATOM      1  C   UNL     1      47.641  80.090  40.516  0.00  0.00    -0.096 C 
ATOM      2  N   UNL     1      46.562  80.968  40.934  0.00  0.00    +0.387 N 
ATOM      3  C   UNL     1      46.066  80.557  42.215  0.00  0.00    -0.096 C 
ATOM      4  C   UNL     1      47.157  82.303  41.119  0.00  0.00    -0.096 C 
ENDROOT
BRANCH   2   5
ATOM      5  C   UNL     1      45.557  81.124  39.929  0.00  0.00    -0.037 C 
BRANCH   5   6
ATOM      6  C   UNL     1      46.089  81.433  38.562  0.00  0.00    +0.160 C 
ATOM      7  O   UNL     1      45.136  82.065  37.792  0.00  0.00    -0.223 OA
ENDBRANCH   5   6
ENDBRANCH   2   5
TORSDOF 2
