REMARK  Name = Acalabrutinib
REMARK  5 active torsions:
REMARK  status: ('A' for Active; 'I' for Inactive)
REMARK    1  A    between atoms: C_3  and  C_4
REMARK    2  A    between atoms: C_10  and  C_11
REMARK    3  A    between atoms: C_13  and  C_21
REMARK    4  A    between atoms: C_24  and  C_27
REMARK    5  A    between atoms: N_29  and  C_30
REMARK                            x       y       z     vdW  Elec       q    Type
REMARK                         _______ _______ _______ _____ _____    ______ ____
ROOT
ATOM      1  C   UNL     1      46.915  82.109  42.312  0.00  0.00    +0.143 A 
ATOM      2  N   UNL     1      46.611  80.805  42.552  0.00  0.00    -0.229 NA
ATOM      3  C   UNL     1      46.103  80.170  41.533  0.00  0.00    +0.102 A 
ATOM      4  C   UNL     1      46.065  81.089  40.465  0.00  0.00    +0.118 A 
ATOM      5  N   UNL     1      46.543  82.249  40.970  0.00  0.00    -0.287 N 
ATOM      6  C   UNL     1      46.718  83.332  40.266  0.00  0.00    +0.102 A 
ATOM      7  C   UNL     1      46.420  83.308  38.882  0.00  0.00    +0.119 A 
ATOM      8  N   UNL     1      45.970  82.190  38.358  0.00  0.00    -0.223 NA
ATOM      9  C   UNL     1      45.777  81.054  39.096  0.00  0.00    +0.187 A 
ATOM     10  N   UNL     1      45.446  79.921  38.354  0.00  0.00    -0.106 NA
ENDROOT
BRANCH   1  17
ATOM     11  C   UNL     1      49.426  81.924  41.933  0.00  0.00    +0.293 C 
ATOM     12  O   UNL     1      48.629  81.158  42.136  0.00  0.00    -0.260 OA
ATOM     13  N   UNL     1      49.163  82.937  43.123  0.00  0.00    -0.264 N 
ATOM     14  C   UNL     1      49.354  83.905  43.980  0.00  0.00    +0.095 C 
ATOM     15  C   UNL     1      48.467  85.138  43.616  0.00  0.00    +0.024 C 
ATOM     16  C   UNL     1      47.540  84.525  42.549  0.00  0.00    +0.029 C 
ATOM     17  C   UNL     1      47.572  83.121  43.013  0.00  0.00    +0.133 C 
BRANCH  11  20
ATOM     18  C   UNL     1      52.595  83.439  39.730  0.00  0.00    +0.090 C 
ATOM     19  C   UNL     1      51.396  82.877  40.557  0.00  0.00    -0.081 C 
ATOM     20  C   UNL     1      50.450  82.415  41.230  0.00  0.00    -0.007 C 
ENDBRANCH  11  20
ENDBRANCH   1  17
BRANCH   3  21
ATOM     21  C   UNL     1      45.428  78.888  41.368  0.00  0.00    +0.019 A 
ATOM     22  C   UNL     1      46.046  77.673  41.192  0.00  0.00    +0.002 A 
ATOM     23  C   UNL     1      45.328  76.587  40.756  0.00  0.00    +0.005 A 
ATOM     24  C   UNL     1      43.993  76.615  40.453  0.00  0.00    +0.055 A 
ATOM     25  C   UNL     1      43.330  77.859  40.647  0.00  0.00    +0.005 A 
ATOM     26  C   UNL     1      44.049  78.933  41.084  0.00  0.00    +0.002 A 
BRANCH  24  27
ATOM     27  C   UNL     1      43.251  75.561  39.673  0.00  0.00    +0.270 C 
ATOM     28  O   UNL     1      43.783  74.549  39.329  0.00  0.00    -0.268 OA
ATOM     29  N   UNL     1      41.921  75.858  39.386  0.00  0.00    -0.157 NA
BRANCH  29  30
ATOM     30  C   UNL     1      40.851  75.295  38.731  0.00  0.00    +0.155 A 
ATOM     31  C   UNL     1      39.756  74.650  39.384  0.00  0.00    +0.036 A 
ATOM     32  C   UNL     1      38.726  74.219  38.603  0.00  0.00    +0.005 A 
ATOM     33  C   UNL     1      38.644  74.350  37.239  0.00  0.00    +0.021 A 
ATOM     34  C   UNL     1      39.753  75.002  36.614  0.00  0.00    +0.100 A 
ATOM     35  N   UNL     1      40.724  75.400  37.401  0.00  0.00    -0.227 NA
ENDBRANCH  29  30
ENDBRANCH  24  27
ENDBRANCH   3  21
TORSDOF 5
