REMARK  Name = Acarbose
REMARK  9 active torsions:
REMARK  status: ('A' for Active; 'I' for Inactive)
REMARK    1  A    between atoms: C_3  and  N_33
REMARK    2  A    between atoms: C_6  and  O_8
REMARK    3  A    between atoms: O_8  and  C_9
REMARK    4  A    between atoms: C_10  and  C_29
REMARK    5  A    between atoms: C_12  and  O_17
REMARK    6  A    between atoms: O_17  and  C_18
REMARK    7  A    between atoms: C_19  and  C_27
REMARK    8  A    between atoms: N_33  and  C_34
REMARK    9  A    between atoms: C_36  and  C_43
REMARK                            x       y       z     vdW  Elec       q    Type
REMARK                         _______ _______ _______ _____ _____    ______ ____
ROOT
ATOM      1  O   UNL     1      44.456  79.671  38.738  0.00  0.00    -0.326 OA
ENDROOT
BRANCH   1   7
ATOM      2  C   UNL     1      45.965  79.803  42.300  0.00  0.00    +0.034 C 
ATOM      3  C   UNL     1      46.964  79.799  41.178  0.00  0.00    +0.136 C 
ATOM      4  C   UNL     1      47.615  81.158  40.984  0.00  0.00    +0.133 C 
ATOM      5  C   UNL     1      47.285  81.667  39.588  0.00  0.00    +0.205 C 
ATOM      6  C   UNL     1      45.828  81.562  39.295  0.00  0.00    +0.239 C 
ATOM      7  C   UNL     1      45.322  80.211  39.692  0.00  0.00    +0.269 C 
ATOM      8  O   UNL     1      46.376  79.382  39.978  0.00  0.00    -0.330 OA
ATOM      9  O   UNL     1      45.690  81.671  37.893  0.00  0.00    -0.215 OA
ATOM     10  O   UNL     1      47.950  80.851  38.658  0.00  0.00    -0.219 OA
BRANCH   4  11
ATOM     11  N   UNL     1      49.019  81.174  41.267  0.00  0.00    -0.209 NA
BRANCH  11  12
ATOM     12  C   UNL     1      49.521  82.489  41.585  0.00  0.00    +0.127 C 
ATOM     13  C   UNL     1      50.867  82.755  41.036  0.00  0.00    -0.010 C 
ATOM     14  C   UNL     1      51.591  83.742  41.532  0.00  0.00    +0.018 C 
ATOM     15  C   UNL     1      51.159  84.633  42.625  0.00  0.00    +0.205 C 
ATOM     16  C   UNL     1      49.823  84.283  43.207  0.00  0.00    +0.218 C 
ATOM     17  C   UNL     1      49.509  82.800  43.043  0.00  0.00    +0.205 C 
ATOM     18  O   UNL     1      48.256  82.596  43.629  0.00  0.00    -0.218 OA
ATOM     19  O   UNL     1      49.667  84.700  44.525  0.00  0.00    -0.217 OA
ATOM     20  O   UNL     1      52.116  84.541  43.663  0.00  0.00    -0.216 OA
BRANCH  14  21
ATOM     21  C   UNL     1      52.948  83.988  40.940  0.00  0.00    +0.207 C 
ATOM     22  O   UNL     1      53.366  82.914  40.165  0.00  0.00    -0.215 OA
ENDBRANCH  14  21
ENDBRANCH  11  12
ENDBRANCH   4  11
ENDBRANCH   1   7
BRANCH   1  23
ATOM     23  C   UNL     1      43.245  79.265  39.280  0.00  0.00    +0.180 C 
ATOM     24  C   UNL     1      43.265  77.876  39.794  0.00  0.00    +0.180 C 
ATOM     25  O   UNL     1      42.337  76.994  39.441  0.00  0.00    -0.326 OA
ATOM     26  C   UNL     1      41.317  77.274  38.628  0.00  0.00    +0.270 C 
ATOM     27  C   UNL     1      40.877  78.693  38.753  0.00  0.00    +0.240 C 
ATOM     28  C   UNL     1      42.087  79.539  38.338  0.00  0.00    +0.217 C 
ATOM     29  O   UNL     1      42.443  79.138  37.058  0.00  0.00    -0.218 OA
ATOM     30  O   UNL     1      40.555  79.105  40.038  0.00  0.00    -0.215 OA
BRANCH  24  31
ATOM     31  C   UNL     1      43.398  77.842  41.334  0.00  0.00    +0.214 C 
ATOM     32  O   UNL     1      43.863  76.593  41.730  0.00  0.00    -0.218 OA
ENDBRANCH  24  31
BRANCH  26  33
ATOM     33  O   UNL     1      40.272  76.367  38.667  0.00  0.00    -0.326 OA
BRANCH  33  34
ATOM     34  C   UNL     1      40.393  75.212  37.975  0.00  0.00    +0.180 C 
ATOM     35  C   UNL     1      40.048  74.091  38.932  0.00  0.00    +0.180 C 
ATOM     36  O   UNL     1      39.843  72.877  38.386  0.00  0.00    -0.324 OA
ATOM     37  C   UNL     1      39.627  72.780  37.051  0.00  0.00    +0.302 C 
ATOM     38  C   UNL     1      38.918  73.923  36.399  0.00  0.00    +0.243 C 
ATOM     39  C   UNL     1      39.402  75.271  36.806  0.00  0.00    +0.217 C 
ATOM     40  O   UNL     1      40.047  75.951  35.746  0.00  0.00    -0.218 OA
ATOM     41  O   UNL     1      37.512  73.792  36.496  0.00  0.00    -0.215 OA
ATOM     42  O   UNL     1      40.786  72.473  36.320  0.00  0.00    -0.187 OA
BRANCH  35  43
ATOM     43  C   UNL     1      38.841  74.542  39.760  0.00  0.00    +0.214 C 
ATOM     44  O   UNL     1      38.836  74.008  41.025  0.00  0.00    -0.218 OA
ENDBRANCH  35  43
ENDBRANCH  33  34
ENDBRANCH  26  33
ENDBRANCH   1  23
TORSDOF 9
