REMARK  Name = Acebutolol
REMARK  10 active torsions:
REMARK  status: ('A' for Active; 'I' for Inactive)
REMARK    1  A    between atoms: C_2  and  C_3
REMARK    2  A    between atoms: C_3  and  C_4
REMARK    3  A    between atoms: N_6  and  C_7
REMARK    4  A    between atoms: C_9  and  C_22
REMARK    5  A    between atoms: C_10  and  O_13
REMARK    6  A    between atoms: O_13  and  C_14
REMARK    7  A    between atoms: C_14  and  C_15
REMARK    8  A    between atoms: C_15  and  C_16
REMARK    9  A    between atoms: C_16  and  N_17
REMARK   10  A    between atoms: N_17  and  C_18
REMARK                            x       y       z     vdW  Elec       q    Type
REMARK                         _______ _______ _______ _____ _____    ______ ____
ROOT
ATOM      1  C   UNL     1      43.843  78.117  39.548  0.00  0.00    +0.074 A 
ATOM      2  C   UNL     1      44.170  79.384  39.039  0.00  0.00    +0.022 A 
ATOM      3  C   UNL     1      45.128  80.200  39.544  0.00  0.00    +0.070 A 
ATOM      4  C   UNL     1      45.848  79.781  40.634  0.00  0.00    +0.141 A 
ATOM      5  C   UNL     1      45.579  78.547  41.185  0.00  0.00    +0.038 A 
ATOM      6  C   UNL     1      44.578  77.728  40.635  0.00  0.00    +0.020 A 
ENDROOT
BRANCH   1   9
ATOM      7  C   UNL     1      41.622  78.014  38.456  0.00  0.00    +0.246 C 
ATOM      8  O   UNL     1      41.356  79.209  38.623  0.00  0.00    -0.273 OA
ATOM      9  N   UNL     1      42.825  77.418  38.895  0.00  0.00    -0.179 NA
BRANCH   7  10
ATOM     10  C   UNL     1      40.580  77.180  37.741  0.00  0.00    +0.087 C 
BRANCH  10  12
ATOM     11  C   UNL     1      40.041  74.968  36.854  0.00  0.00    +0.001 C 
ATOM     12  C   UNL     1      41.069  75.779  37.612  0.00  0.00    +0.010 C 
ENDBRANCH  10  12
ENDBRANCH   7  10
ENDBRANCH   1   9
BRANCH   3  13
ATOM     13  C   UNL     1      45.377  81.494  38.930  0.00  0.00    +0.176 C 
ATOM     14  O   UNL     1      44.783  81.824  37.856  0.00  0.00    -0.291 OA
ATOM     15  C   UNL     1      46.318  82.465  39.519  0.00  0.00    +0.077 C 
ENDBRANCH   3  13
BRANCH   4  16
ATOM     16  O   UNL     1      46.834  80.585  41.179  0.00  0.00    -0.473 OA
BRANCH  16  17
ATOM     17  C   UNL     1      47.297  80.327  42.468  0.00  0.00    +0.240 C 
BRANCH  17  18
ATOM     18  C   UNL     1      48.749  80.755  42.632  0.00  0.00    +0.213 C 
ATOM     19  O   UNL     1      49.525  80.380  41.564  0.00  0.00    -0.218 OA
BRANCH  18  20
ATOM     20  C   UNL     1      48.789  82.283  42.703  0.00  0.00    +0.125 C 
BRANCH  20  21
ATOM     21  N   UNL     1      50.177  82.638  42.929  0.00  0.00    -0.217 NA
BRANCH  21  22
ATOM     22  C   UNL     1      50.278  84.078  42.965  0.00  0.00    +0.073 C 
ATOM     23  C   UNL     1      49.607  84.629  44.214  0.00  0.00    +0.019 C 
ATOM     24  C   UNL     1      51.750  84.433  42.975  0.00  0.00    +0.019 C 
ENDBRANCH  21  22
ENDBRANCH  20  21
ENDBRANCH  18  20
ENDBRANCH  17  18
ENDBRANCH  16  17
ENDBRANCH   4  16
TORSDOF 10
