REMARK  Name = ACECLIDINE
REMARK  2 active torsions:
REMARK  status: ('A' for Active; 'I' for Inactive)
REMARK    1  A    between atoms: C_2  and  O_4
REMARK    2  A    between atoms: O_4  and  C_5
REMARK                            x       y       z     vdW  Elec       q    Type
REMARK                         _______ _______ _______ _____ _____    ______ ____
ROOT
ATOM      1  C   UNL     1      46.968  80.053  40.593  0.00  0.00    +0.185 C 
ATOM      2  C   UNL     1      47.115  80.456  39.128  0.00  0.00    +0.116 C 
ATOM      3  N   UNL     1      45.860  81.091  38.706  0.00  0.00    -0.270 NA
ATOM      4  C   UNL     1      44.786  80.318  39.272  0.00  0.00    +0.072 C 
ATOM      5  C   UNL     1      44.627  80.719  40.717  0.00  0.00    +0.021 C 
ATOM      6  C   UNL     1      46.023  81.060  41.231  0.00  0.00    +0.044 C 
ATOM      7  C   UNL     1      46.364  82.434  40.692  0.00  0.00    +0.021 C 
ATOM      8  C   UNL     1      45.874  82.455  39.244  0.00  0.00    +0.072 C 
ENDROOT
BRANCH   1   9
ATOM      9  O   UNL     1      48.187  80.084  41.269  0.00  0.00    -0.451 OA
BRANCH   9  11
ATOM     10  C   UNL     1      49.966  81.368  42.495  0.00  0.00    +0.121 C 
ATOM     11  C   UNL     1      48.546  81.186  42.025  0.00  0.00    +0.317 C 
ATOM     12  O   UNL     1      47.652  82.015  42.298  0.00  0.00    -0.250 OA
ENDBRANCH   9  11
ENDBRANCH   1   9
TORSDOF 2
