REMARK  Name = Aceclofenac
REMARK  7 active torsions:
REMARK  status: ('A' for Active; 'I' for Inactive)
REMARK    1  A    between atoms: C_4  and  N_15
REMARK    2  A    between atoms: C_5  and  C_7
REMARK    3  A    between atoms: C_7  and  C_8
REMARK    4  A    between atoms: C_8  and  O_10
REMARK    5  A    between atoms: O_10  and  C_11
REMARK    6  A    between atoms: C_11  and  C_12
REMARK    7  A    between atoms: N_15  and  C_16
REMARK                            x       y       z     vdW  Elec       q    Type
REMARK                         _______ _______ _______ _____ _____    ______ ____
ROOT
ATOM      1  C   UNL     1      45.877  81.747  38.766  0.00  0.00    -0.000 A 
ATOM      2  C   UNL     1      46.879  82.699  38.983  0.00  0.00    +0.001 A 
ATOM      3  C   UNL     1      47.641  82.740  40.127  0.00  0.00    +0.016 A 
ATOM      4  C   UNL     1      47.351  81.747  41.091  0.00  0.00    +0.067 A 
ATOM      5  C   UNL     1      46.388  80.814  40.921  0.00  0.00    +0.004 A 
ATOM      6  C   UNL     1      45.640  80.810  39.740  0.00  0.00    -0.002 A 
ENDROOT
BRANCH   5   7
ATOM      7  C   UNL     1      45.921  79.856  41.967  0.00  0.00    +0.137 C 
BRANCH   7   8
ATOM      8  C   UNL     1      45.397  78.639  41.274  0.00  0.00    +0.322 C 
ATOM      9  O   UNL     1      45.365  78.599  40.032  0.00  0.00    -0.250 OA
BRANCH   8  10
ATOM     10  O   UNL     1      44.966  77.574  42.007  0.00  0.00    -0.436 OA
BRANCH  10  11
ATOM     11  C   UNL     1      44.216  76.507  41.478  0.00  0.00    +0.321 C 
BRANCH  11  12
ATOM     12  C   UNL     1      43.885  75.431  42.440  0.00  0.00    +0.409 C 
ATOM     13  O   UNL     1      44.411  75.625  43.621  0.00  0.00    -0.241 OA
ATOM     14  O   UNL     1      43.142  74.322  42.261  0.00  0.00    -0.241 OA
ENDBRANCH  11  12
ENDBRANCH  10  11
ENDBRANCH   8  10
ENDBRANCH   7   8
ENDBRANCH   5   7
BRANCH   4  15
ATOM     15  N   UNL     1      48.197  81.722  42.225  0.00  0.00    -0.211 NA
BRANCH  15  16
ATOM     16  C   UNL     1      49.077  82.743  42.579  0.00  0.00    +0.091 A 
ATOM     17  C   UNL     1      48.708  83.980  43.022  0.00  0.00    +0.074 A 
ATOM     18  C   UNL     1      49.619  84.951  43.408  0.00  0.00    +0.013 A 
ATOM     19  C   UNL     1      50.947  84.698  43.354  0.00  0.00    +0.002 A 
ATOM     20  C   UNL     1      51.371  83.436  42.904  0.00  0.00    +0.013 A 
ATOM     21  C   UNL     1      50.435  82.501  42.531  0.00  0.00    +0.074 A 
ATOM     22 CL   UNL     1      50.970  80.939  41.988  0.00  0.00    -0.081 Cl
ATOM     23 CL   UNL     1      47.022  84.386  43.126  0.00  0.00    -0.081 Cl
ENDBRANCH  15  16
ENDBRANCH   4  15
TORSDOF 7
