REMARK  Name = Acenocoumarol
REMARK  5 active torsions:
REMARK  status: ('A' for Active; 'I' for Inactive)
REMARK    1  A    between atoms: C_2  and  C_4
REMARK    2  A    between atoms: C_4  and  C_5
REMARK    3  A    between atoms: C_5  and  C_6
REMARK    4  A    between atoms: C_5  and  C_15
REMARK    5  A    between atoms: C_9  and  N_12
REMARK                            x       y       z     vdW  Elec       q    Type
REMARK                         _______ _______ _______ _____ _____    ______ ____
ROOT
ATOM      1  C   UNL     1      47.367  81.534  41.392  0.00  0.00    +0.061 C 
ENDROOT
BRANCH   1   2
ATOM      2  C   UNL     1      46.236  81.101  40.561  0.00  0.00    +0.097 A 
ATOM      3  C   UNL     1      45.520  79.956  40.894  0.00  0.00    +0.201 A 
ATOM      4  C   UNL     1      44.458  79.565  40.081  0.00  0.00    +0.073 A 
ATOM      5  C   UNL     1      43.753  78.436  40.409  0.00  0.00    +0.006 A 
ATOM      6  C   UNL     1      42.696  78.050  39.599  0.00  0.00    +0.000 A 
ATOM      7  C   UNL     1      42.344  78.776  38.476  0.00  0.00    +0.003 A 
ATOM      8  C   UNL     1      43.059  79.896  38.169  0.00  0.00    +0.038 A 
ATOM      9  C   UNL     1      44.108  80.302  38.951  0.00  0.00    +0.152 A 
ATOM     10  O   UNL     1      44.820  81.378  38.683  0.00  0.00    -0.421 OA
ATOM     11  C   UNL     1      45.819  81.766  39.427  0.00  0.00    +0.345 A 
ATOM     12  O   UNL     1      46.445  82.801  39.101  0.00  0.00    -0.245 OA
ATOM     13  O   UNL     1      45.810  79.175  42.001  0.00  0.00    -0.287 OA
ENDBRANCH   1   2
BRANCH   1  14
ATOM     14  C   UNL     1      48.524  80.607  41.326  0.00  0.00    -0.018 A 
ATOM     15  C   UNL     1      48.788  79.616  42.247  0.00  0.00    -0.002 A 
ATOM     16  C   UNL     1      49.870  78.772  42.150  0.00  0.00    +0.024 A 
ATOM     17  C   UNL     1      50.757  78.880  41.107  0.00  0.00    +0.143 A 
ATOM     18  C   UNL     1      50.520  79.863  40.169  0.00  0.00    +0.024 A 
ATOM     19  C   UNL     1      49.433  80.699  40.280  0.00  0.00    -0.002 A 
BRANCH  17  20
ATOM     20  N   UNL     1      51.890  78.017  40.981  0.00  0.00    +0.058 N 
ATOM     21  O   UNL     1      52.652  78.203  40.016  0.00  0.00    -0.126 OA
ATOM     22  O   UNL     1      52.167  77.018  41.855  0.00  0.00    -0.126 OA
ENDBRANCH  17  20
ENDBRANCH   1  14
BRANCH   1  23
ATOM     23  C   UNL     1      47.802  82.944  41.211  0.00  0.00    +0.074 C 
BRANCH  23  25
ATOM     24  C   UNL     1      48.067  85.159  42.437  0.00  0.00    +0.072 C 
ATOM     25  C   UNL     1      47.371  83.836  42.295  0.00  0.00    +0.152 C 
ATOM     26  O   UNL     1      46.489  83.606  43.108  0.00  0.00    -0.296 OA
ENDBRANCH  23  25
ENDBRANCH   1  23
TORSDOF 5
