REMARK  Name = Aceprometazine
REMARK  4 active torsions:
REMARK  status: ('A' for Active; 'I' for Inactive)
REMARK    1  A    between atoms: C_2  and  C_3
REMARK    2  A    between atoms: C_2  and  N_21
REMARK    3  A    between atoms: C_3  and  N_4
REMARK    4  A    between atoms: C_15  and  C_18
REMARK                            x       y       z     vdW  Elec       q    Type
REMARK                         _______ _______ _______ _____ _____    ______ ____
ROOT
ATOM      1  N   UNL     1      45.408  78.435  40.502  0.00  0.00    -0.285 N 
ATOM      2  C   UNL     1      46.385  79.418  40.857  0.00  0.00    +0.058 A 
ATOM      3  C   UNL     1      47.464  79.066  41.640  0.00  0.00    +0.015 A 
ATOM      4  C   UNL     1      48.471  79.951  42.022  0.00  0.00    +0.001 A 
ATOM      5  C   UNL     1      48.400  81.246  41.603  0.00  0.00    +0.001 A 
ATOM      6  C   UNL     1      47.339  81.638  40.819  0.00  0.00    +0.008 A 
ATOM      7  C   UNL     1      46.349  80.739  40.453  0.00  0.00    +0.043 A 
ATOM      8  S   UNL     1      45.014  81.335  39.424  0.00  0.00    -0.084 S 
ATOM      9  C   UNL     1      43.978  79.938  39.127  0.00  0.00    +0.043 A 
ATOM     10  C   UNL     1      44.266  78.720  39.671  0.00  0.00    +0.058 A 
ATOM     11  C   UNL     1      43.380  77.700  39.383  0.00  0.00    +0.018 A 
ATOM     12  C   UNL     1      42.250  77.844  38.596  0.00  0.00    +0.036 A 
ATOM     13  C   UNL     1      42.026  79.097  38.083  0.00  0.00    +0.003 A 
ATOM     14  C   UNL     1      42.880  80.139  38.344  0.00  0.00    +0.008 A 
ENDROOT
BRANCH  12  15
ATOM     15  C   UNL     1      41.354  76.731  38.328  0.00  0.00    +0.174 C 
ATOM     16  O   UNL     1      41.503  75.655  38.928  0.00  0.00    -0.291 OA
ATOM     17  C   UNL     1      40.272  76.907  37.335  0.00  0.00    +0.077 C 
ENDBRANCH  12  15
BRANCH   1  18
ATOM     18  C   UNL     1      45.542  77.104  41.032  0.00  0.00    +0.111 C 
BRANCH  18  20
ATOM     19  C   UNL     1      43.719  77.744  42.586  0.00  0.00    +0.019 C 
ATOM     20  C   UNL     1      45.062  77.037  42.435  0.00  0.00    +0.078 C 
BRANCH  20  21
ATOM     21  N   UNL     1      44.904  75.718  42.966  0.00  0.00    -0.270 NA
ATOM     22  C   UNL     1      44.865  75.617  44.388  0.00  0.00    +0.090 C 
ATOM     23  C   UNL     1      45.880  74.838  42.385  0.00  0.00    +0.090 C 
ENDBRANCH  20  21
ENDBRANCH  18  20
ENDBRANCH   1  18
TORSDOF 4
