REMARK  Name = Acetophenazine
REMARK  7 active torsions:
REMARK  status: ('A' for Active; 'I' for Inactive)
REMARK    1  A    between atoms: C_2  and  C_4
REMARK    2  A    between atoms: N_17  and  C_18
REMARK    3  A    between atoms: C_18  and  C_19
REMARK    4  A    between atoms: C_19  and  C_20
REMARK    5  A    between atoms: C_20  and  N_21
REMARK    6  A    between atoms: N_24  and  C_27
REMARK    7  A    between atoms: C_27  and  C_28
REMARK                            x       y       z     vdW  Elec       q    Type
REMARK                         _______ _______ _______ _____ _____    ______ ____
ROOT
ATOM      1  C   UNL     1      45.913  80.893  39.748  0.00  0.00    +0.036 A 
ATOM      2  C   UNL     1      45.056  79.796  39.587  0.00  0.00    +0.018 A 
ATOM      3  C   UNL     1      44.895  78.812  40.547  0.00  0.00    +0.058 A 
ATOM      4  C   UNL     1      45.640  78.978  41.693  0.00  0.00    +0.043 A 
ATOM      5  C   UNL     1      46.498  80.037  41.907  0.00  0.00    +0.008 A 
ATOM      6  C   UNL     1      46.618  80.986  40.916  0.00  0.00    +0.003 A 
ATOM      7  S   UNL     1      45.497  77.776  43.001  0.00  0.00    -0.084 S 
ATOM      8  C   UNL     1      44.349  76.543  42.450  0.00  0.00    +0.043 A 
ATOM      9  C   UNL     1      44.100  75.486  43.307  0.00  0.00    +0.008 A 
ATOM     10  C   UNL     1      43.232  74.486  42.954  0.00  0.00    +0.001 A 
ATOM     11  C   UNL     1      42.620  74.559  41.734  0.00  0.00    +0.001 A 
ATOM     12  C   UNL     1      42.890  75.634  40.893  0.00  0.00    +0.015 A 
ATOM     13  C   UNL     1      43.761  76.664  41.216  0.00  0.00    +0.058 A 
ATOM     14  N   UNL     1      44.008  77.726  40.311  0.00  0.00    -0.286 N 
ENDROOT
BRANCH   1  16
ATOM     15  C   UNL     1      47.080  82.890  38.697  0.00  0.00    +0.077 C 
ATOM     16  C   UNL     1      46.005  81.865  38.675  0.00  0.00    +0.174 C 
ATOM     17  O   UNL     1      45.202  81.871  37.723  0.00  0.00    -0.291 OA
ENDBRANCH   1  16
BRANCH  14  18
ATOM     18  C   UNL     1      43.268  77.741  39.049  0.00  0.00    +0.097 C 
BRANCH  18  19
ATOM     19  C   UNL     1      41.794  77.634  39.202  0.00  0.00    +0.039 C 
BRANCH  19  20
ATOM     20  C   UNL     1      41.028  77.888  37.922  0.00  0.00    +0.074 C 
BRANCH  20  21
ATOM     21  N   UNL     1      40.229  76.809  37.503  0.00  0.00    -0.270 NA
ATOM     22  C   UNL     1      40.797  75.804  36.711  0.00  0.00    +0.090 C 
ATOM     23  C   UNL     1      39.848  75.106  35.771  0.00  0.00    +0.090 C 
ATOM     24  N   UNL     1      38.495  75.079  36.241  0.00  0.00    -0.268 NA
ATOM     25  C   UNL     1      38.410  75.283  37.663  0.00  0.00    +0.090 C 
ATOM     26  C   UNL     1      38.885  76.726  37.890  0.00  0.00    +0.090 C 
BRANCH  24  27
ATOM     27  C   UNL     1      37.690  74.021  35.749  0.00  0.00    +0.108 C 
BRANCH  27  28
ATOM     28  C   UNL     1      36.826  73.348  36.782  0.00  0.00    +0.199 C 
ATOM     29  O   UNL     1      36.099  72.323  36.142  0.00  0.00    -0.219 OA
ENDBRANCH  27  28
ENDBRANCH  24  27
ENDBRANCH  20  21
ENDBRANCH  19  20
ENDBRANCH  18  19
ENDBRANCH  14  18
TORSDOF 7
