REMARK  Name = Acetyldigitoxin
REMARK  9 active torsions:
REMARK  status: ('A' for Active; 'I' for Inactive)
REMARK    1  A    between atoms: C_4  and  O_53
REMARK    2  A    between atoms: C_6  and  O_8
REMARK    3  A    between atoms: O_8  and  C_9
REMARK    4  A    between atoms: C_12  and  O_16
REMARK    5  A    between atoms: O_16  and  C_17
REMARK    6  A    between atoms: C_20  and  O_24
REMARK    7  A    between atoms: O_24  and  C_25
REMARK    8  A    between atoms: C_41  and  C_42
REMARK    9  A    between atoms: O_53  and  C_54
REMARK                            x       y       z     vdW  Elec       q    Type
REMARK                         _______ _______ _______ _____ _____    ______ ____
ROOT
ATOM      1  C   UNL     1      39.532  74.646  36.796  0.00  0.00    +0.175 C 
ATOM      2  C   UNL     1      39.207  75.483  38.034  0.00  0.00    +0.147 C 
ATOM      3  O   UNL     1      39.361  76.800  37.654  0.00  0.00    -0.330 OA
ATOM      4  C   UNL     1      40.711  77.129  37.602  0.00  0.00    +0.238 C 
ATOM      5  C   UNL     1      41.406  76.292  36.587  0.00  0.00    +0.097 C 
ATOM      6  C   UNL     1      41.009  74.858  36.544  0.00  0.00    +0.186 C 
ATOM      7  O   UNL     1      41.794  74.121  37.425  0.00  0.00    -0.220 OA
ATOM      8  C   UNL     1      37.810  75.179  38.534  0.00  0.00    +0.035 C 
ENDROOT
BRANCH   1   9
ATOM      9  O   UNL     1      38.809  75.078  35.696  0.00  0.00    -0.328 OA
BRANCH   9  13
ATOM     10  C   UNL     1      37.002  73.148  32.901  0.00  0.00    +0.175 C 
ATOM     11  C   UNL     1      38.300  72.547  33.398  0.00  0.00    +0.147 C 
ATOM     12  O   UNL     1      38.659  73.072  34.640  0.00  0.00    -0.330 OA
ATOM     13  C   UNL     1      39.116  74.384  34.529  0.00  0.00    +0.238 C 
ATOM     14  C   UNL     1      38.471  75.035  33.343  0.00  0.00    +0.097 C 
ATOM     15  C   UNL     1      37.001  74.595  33.331  0.00  0.00    +0.186 C 
ATOM     16  O   UNL     1      36.335  75.360  32.377  0.00  0.00    -0.220 OA
ATOM     17  C   UNL     1      38.043  71.068  33.615  0.00  0.00    +0.035 C 
BRANCH  10  18
ATOM     18  O   UNL     1      36.883  73.104  31.520  0.00  0.00    -0.328 OA
BRANCH  18  24
ATOM     19  C   UNL     1      35.379  73.258  28.407  0.00  0.00    +0.035 C 
ATOM     20  C   UNL     1      34.601  72.318  29.301  0.00  0.00    +0.152 C 
ATOM     21  C   UNL     1      34.719  70.895  28.838  0.00  0.00    +0.219 C 
ATOM     22  C   UNL     1      35.718  70.162  29.665  0.00  0.00    +0.206 C 
ATOM     23  C   UNL     1      36.749  71.124  30.164  0.00  0.00    +0.108 C 
ATOM     24  C   UNL     1      36.042  72.090  31.115  0.00  0.00    +0.239 C 
ATOM     25  O   UNL     1      34.834  72.521  30.633  0.00  0.00    -0.330 OA
ATOM     26  O   UNL     1      33.502  70.220  28.873  0.00  0.00    -0.217 OA
BRANCH  22  27
ATOM     27  O   UNL     1      36.278  69.046  29.008  0.00  0.00    -0.449 OA
BRANCH  27  28
ATOM     28  C   UNL     1      36.877  67.977  29.614  0.00  0.00    +0.318 C 
ATOM     29  O   UNL     1      36.461  67.625  30.748  0.00  0.00    -0.250 OA
ATOM     30  C   UNL     1      37.995  67.250  28.945  0.00  0.00    +0.121 C 
ENDBRANCH  27  28
ENDBRANCH  22  27
ENDBRANCH  18  24
ENDBRANCH  10  18
ENDBRANCH   9  13
ENDBRANCH   1   9
BRANCH   4  31
ATOM     31  O   UNL     1      41.229  76.996  38.883  0.00  0.00    -0.333 OA
BRANCH  31  32
ATOM     32  C   UNL     1      42.563  76.629  38.890  0.00  0.00    +0.118 C 
ATOM     33  C   UNL     1      42.983  76.503  40.335  0.00  0.00    +0.030 C 
ATOM     34  C   UNL     1      44.110  77.448  40.682  0.00  0.00    +0.002 C 
ATOM     35  C   UNL     1      43.692  78.904  40.418  0.00  0.00    +0.000 C 
ATOM     36  C   UNL     1      43.203  78.976  39.035  0.00  0.00    +0.002 C 
ATOM     37  C   UNL     1      43.415  77.676  38.240  0.00  0.00    +0.030 C 
ATOM     38  C   UNL     1      43.712  80.082  38.181  0.00  0.00    +0.000 C 
ATOM     39  C   UNL     1      45.065  80.621  38.563  0.00  0.00    +0.002 C 
ATOM     40  C   UNL     1      44.983  81.016  39.997  0.00  0.00    +0.028 C 
ATOM     41  C   UNL     1      44.827  79.757  40.822  0.00  0.00    +0.002 C 
ATOM     42  C   UNL     1      46.160  79.046  40.806  0.00  0.00    +0.000 C 
ATOM     43  C   UNL     1      47.224  79.943  41.457  0.00  0.00    +0.003 C 
ATOM     44  C   UNL     1      47.397  81.227  40.739  0.00  0.00    +0.029 C 
ATOM     45  C   UNL     1      46.069  81.882  40.474  0.00  0.00    +0.127 C 
ATOM     46  C   UNL     1      45.740  82.583  41.752  0.00  0.00    +0.031 C 
ATOM     47  C   UNL     1      47.032  82.724  42.521  0.00  0.00    +0.007 C 
ATOM     48  C   UNL     1      48.095  82.279  41.523  0.00  0.00    +0.024 C 
ATOM     49  O   UNL     1      46.315  82.862  39.483  0.00  0.00    -0.226 OA
ATOM     50  C   UNL     1      48.148  80.974  39.431  0.00  0.00    +0.003 C 
ATOM     51  C   UNL     1      42.540  79.149  41.407  0.00  0.00    +0.000 C 
BRANCH  48  52
ATOM     52  C   UNL     1      49.350  81.942  42.182  0.00  0.00    +0.005 C 
ATOM     53  C   UNL     1      50.119  82.894  42.759  0.00  0.00    +0.077 C 
ATOM     54  C   UNL     1      51.309  82.298  43.343  0.00  0.00    +0.341 C 
ATOM     55  O   UNL     1      52.240  82.906  43.960  0.00  0.00    -0.245 OA
ATOM     56  O   UNL     1      51.253  80.954  43.113  0.00  0.00    -0.441 OA
ATOM     57  C   UNL     1      50.029  80.666  42.425  0.00  0.00    +0.231 C 
ENDBRANCH  48  52
ENDBRANCH  31  32
ENDBRANCH   4  31
TORSDOF 9
