REMARK  Name = Acetazolamide
REMARK  1 active torsions:
REMARK  status: ('A' for Active; 'I' for Inactive)
REMARK    1  A    between atoms: C_8  and  S_10
REMARK                            x       y       z     vdW  Elec       q    Type
REMARK                         _______ _______ _______ _____ _____    ______ ____
ROOT
ATOM      1  C   UNL     1      42.184  78.172  38.274  0.00  0.00    +0.097 C 
ATOM      2  C   UNL     1      43.334  78.981  38.747  0.00  0.00    +0.248 C 
ATOM      3  O   UNL     1      43.950  78.637  39.811  0.00  0.00    -0.273 OA
ATOM      4  N   UNL     1      43.747  80.128  38.021  0.00  0.00    -0.153 NA
ATOM      5  C   UNL     1      44.794  80.919  38.578  0.00  0.00    +0.209 A 
ATOM      6  N   UNL     1      45.331  82.060  38.155  0.00  0.00    -0.122 NA
ATOM      7  N   UNL     1      46.265  82.602  38.810  0.00  0.00    -0.119 NA
ATOM      8  C   UNL     1      46.714  82.036  39.921  0.00  0.00    +0.259 A 
ATOM      9  S   UNL     1      45.721  80.651  40.007  0.00  0.00    -0.009 S 
ENDROOT
BRANCH   8  10
ATOM     10  S   UNL     1      47.954  82.479  41.058  0.00  0.00    +0.118 S 
ATOM     11  O   UNL     1      47.315  83.265  42.169  0.00  0.00    -0.148 OA
ATOM     12  O   UNL     1      48.575  81.240  41.593  0.00  0.00    -0.148 OA
ATOM     13  N   UNL     1      49.159  83.457  40.335  0.00  0.00    +0.041 NA
ENDBRANCH   8  10
TORSDOF 1
