REMARK  Name = Aciclovir
REMARK  4 active torsions:
REMARK  status: ('A' for Active; 'I' for Inactive)
REMARK    1  A    between atoms: N_5  and  C_6
REMARK    2  A    between atoms: C_6  and  O_7
REMARK    3  A    between atoms: O_7  and  C_8
REMARK    4  A    between atoms: C_8  and  C_9
REMARK                            x       y       z     vdW  Elec       q    Type
REMARK                         _______ _______ _______ _____ _____    ______ ____
ROOT
ATOM      1  C   UNL     1      47.940  82.789  40.662  0.00  0.00    +0.182 A 
ATOM      2  N   UNL     1      47.116  82.900  39.607  0.00  0.00    -0.217 NA
ATOM      3  C   UNL     1      46.346  81.822  39.547  0.00  0.00    +0.175 A 
ATOM      4  C   UNL     1      46.717  81.025  40.608  0.00  0.00    +0.172 A 
ATOM      5  N   UNL     1      47.714  81.635  41.301  0.00  0.00    -0.268 N 
ATOM      6  N   UNL     1      46.099  79.838  40.812  0.00  0.00    -0.192 NA
ATOM      7  C   UNL     1      45.118  79.390  40.010  0.00  0.00    +0.261 A 
ATOM      8  N   UNL     1      44.768  80.192  38.971  0.00  0.00    -0.171 NA
ATOM      9  C   UNL     1      45.330  81.372  38.707  0.00  0.00    +0.302 A 
ATOM     10  O   UNL     1      45.008  82.109  37.750  0.00  0.00    -0.263 OA
ATOM     11  N   UNL     1      44.476  78.144  40.232  0.00  0.00    -0.086 NA
ENDROOT
BRANCH   5  12
ATOM     12  C   UNL     1      48.356  81.088  42.484  0.00  0.00    +0.258 C 
BRANCH  12  13
ATOM     13  O   UNL     1      49.329  81.944  42.942  0.00  0.00    -0.329 OA
BRANCH  13  14
ATOM     14  C   UNL     1      50.623  81.529  42.769  0.00  0.00    +0.180 C 
BRANCH  14  15
ATOM     15  C   UNL     1      51.413  82.364  41.790  0.00  0.00    +0.214 C 
ATOM     16  O   UNL     1      51.610  83.656  42.235  0.00  0.00    -0.218 OA
ENDBRANCH  14  15
ENDBRANCH  13  14
ENDBRANCH  12  13
ENDBRANCH   5  12
TORSDOF 4
