REMARK  Name = Acitretin
REMARK  6 active torsions:
REMARK  status: ('A' for Active; 'I' for Inactive)
REMARK    1  A    between atoms: C_4  and  O_23
REMARK    2  A    between atoms: C_7  and  C_8
REMARK    3  A    between atoms: C_9  and  C_10
REMARK    4  A    between atoms: C_11  and  C_12
REMARK    5  A    between atoms: C_13  and  C_14
REMARK    6  A    between atoms: C_15  and  C_16
REMARK                            x       y       z     vdW  Elec       q    Type
REMARK                         _______ _______ _______ _____ _____    ______ ____
ROOT
ATOM      1  C   UNL     1      47.885  82.307  41.232  0.00  0.00    -0.001 C 
ATOM      2  C   UNL     1      46.721  81.757  41.422  0.00  0.00    -0.004 C 
ENDROOT
BRANCH   1   9
ATOM      3  C   UNL     1      47.010  84.431  43.167  0.00  0.00    +0.031 C 
ATOM      4  C   UNL     1      48.429  83.958  42.981  0.00  0.00    -0.019 A 
ATOM      5  C   UNL     1      49.410  84.551  43.757  0.00  0.00    +0.032 A 
ATOM      6  C   UNL     1      50.722  84.166  43.699  0.00  0.00    +0.134 A 
ATOM      7  C   UNL     1      51.096  83.159  42.846  0.00  0.00    +0.008 A 
ATOM      8  C   UNL     1      50.130  82.569  42.075  0.00  0.00    -0.023 A 
ATOM      9  C   UNL     1      48.770  82.960  42.128  0.00  0.00    -0.008 A 
ATOM     10  C   UNL     1      50.559  81.481  41.157  0.00  0.00    +0.031 C 
ATOM     11  C   UNL     1      52.517  82.725  42.768  0.00  0.00    +0.034 C 
BRANCH   6  12
ATOM     12  O   UNL     1      51.710  84.757  44.475  0.00  0.00    -0.472 OA
ATOM     13  C   UNL     1      51.356  85.920  45.222  0.00  0.00    +0.252 C 
ENDBRANCH   6  12
ENDBRANCH   1   9
BRANCH   2  14
ATOM     14  C   UNL     1      45.986  81.151  40.258  0.00  0.00    -0.022 C 
ATOM     15  C   UNL     1      45.457  79.976  40.412  0.00  0.00    -0.004 C 
ATOM     16  C   UNL     1      45.915  81.927  39.027  0.00  0.00    +0.031 C 
BRANCH  15  17
ATOM     17  C   UNL     1      44.421  79.445  39.560  0.00  0.00    -0.001 C 
ATOM     18  C   UNL     1      43.951  78.203  39.806  0.00  0.00    -0.004 C 
BRANCH  18  19
ATOM     19  C   UNL     1      42.884  77.626  39.016  0.00  0.00    -0.015 C 
ATOM     20  C   UNL     1      42.229  76.522  39.273  0.00  0.00    +0.082 C 
ATOM     21  C   UNL     1      42.510  78.406  37.769  0.00  0.00    +0.031 C 
BRANCH  20  22
ATOM     22  C   UNL     1      41.167  75.918  38.529  0.00  0.00    +0.388 C 
ATOM     23  O   UNL     1      40.595  74.845  38.929  0.00  0.00    -0.241 OA
ATOM     24  O   UNL     1      40.681  76.425  37.345  0.00  0.00    -0.241 OA
ENDBRANCH  20  22
ENDBRANCH  18  19
ENDBRANCH  15  17
ENDBRANCH   2  14
TORSDOF 6
