REMARK  Name = Acitazanolast
REMARK  3 active torsions:
REMARK  status: ('A' for Active; 'I' for Inactive)
REMARK    1  A    between atoms: C_3  and  C_13
REMARK    2  A    between atoms: C_5  and  N_7
REMARK    3  A    between atoms: C_8  and  C_10
REMARK                            x       y       z     vdW  Elec       q    Type
REMARK                         _______ _______ _______ _____ _____    ______ ____
ROOT
ATOM      1  C   UNL     1      46.775  82.666  39.067  0.00  0.00    +0.001 A 
ATOM      2  C   UNL     1      45.776  81.740  38.874  0.00  0.00    +0.003 A 
ATOM      3  C   UNL     1      45.640  80.602  39.641  0.00  0.00    +0.041 A 
ATOM      4  C   UNL     1      46.559  80.401  40.644  0.00  0.00    +0.020 A 
ATOM      5  C   UNL     1      47.587  81.313  40.874  0.00  0.00    +0.074 A 
ATOM      6  C   UNL     1      47.680  82.435  40.080  0.00  0.00    +0.017 A 
ENDROOT
BRANCH   3   7
ATOM      7  C   UNL     1      44.582  79.620  39.438  0.00  0.00    +0.208 A 
ATOM      8  N   UNL     1      44.279  78.560  40.237  0.00  0.00    -0.106 NA
ATOM      9  N   UNL     1      43.250  77.899  39.716  0.00  0.00    -0.021 NA
ATOM     10  N   UNL     1      42.882  78.509  38.598  0.00  0.00    -0.021 NA
ATOM     11  N   UNL     1      43.683  79.550  38.425  0.00  0.00    -0.106 NA
ENDBRANCH   3   7
BRANCH   5  12
ATOM     12  N   UNL     1      48.539  81.095  41.921  0.00  0.00    -0.170 NA
ATOM     13  C   UNL     1      49.730  81.865  41.961  0.00  0.00    +0.349 C 
ATOM     14  O   UNL     1      49.962  82.789  41.116  0.00  0.00    -0.261 OA
BRANCH  13  15
ATOM     15  C   UNL     1      50.737  81.631  42.972  0.00  0.00    +0.442 C 
ATOM     16  O   UNL     1      51.801  82.292  42.939  0.00  0.00    -0.235 OA
ATOM     17  O   UNL     1      50.592  80.702  43.992  0.00  0.00    -0.235 OA
ENDBRANCH  13  15
ENDBRANCH   5  12
TORSDOF 3
