REMARK  Name = Acocantherin
REMARK  4 active torsions:
REMARK  status: ('A' for Active; 'I' for Inactive)
REMARK    1  A    between atoms: C_6  and  O_8
REMARK    2  A    between atoms: O_8  and  C_9
REMARK    3  A    between atoms: C_12  and  C_36
REMARK    4  A    between atoms: C_23  and  C_29
REMARK                            x       y       z     vdW  Elec       q    Type
REMARK                         _______ _______ _______ _____ _____    ______ ____
ROOT
ATOM      1  C   UNL     1      41.775  78.283  39.560  0.00  0.00    +0.123 C 
ATOM      2  C   UNL     1      42.560  77.989  40.783  0.00  0.00    +0.063 C 
ATOM      3  C   UNL     1      43.963  77.570  40.361  0.00  0.00    +0.159 C 
ATOM      4  C   UNL     1      44.778  78.547  39.653  0.00  0.00    +0.087 C 
ATOM      5  C   UNL     1      45.939  79.200  40.293  0.00  0.00    +0.040 C 
ATOM      6  C   UNL     1      46.239  80.581  39.745  0.00  0.00    +0.031 C 
ATOM      7  C   UNL     1      45.112  81.519  39.568  0.00  0.00    +0.005 C 
ATOM      8  C   UNL     1      43.745  80.843  39.750  0.00  0.00    +0.031 C 
ATOM      9  C   UNL     1      43.859  79.568  38.958  0.00  0.00    +0.134 C 
ATOM     10  C   UNL     1      42.560  78.990  38.528  0.00  0.00    +0.060 C 
ATOM     11  O   UNL     1      44.467  79.995  37.746  0.00  0.00    -0.225 OA
ATOM     12  C   UNL     1      47.395  81.207  40.453  0.00  0.00    +0.127 C 
ATOM     13  C   UNL     1      47.783  82.546  40.033  0.00  0.00    +0.031 C 
ATOM     14  C   UNL     1      48.495  83.131  41.222  0.00  0.00    +0.007 C 
ATOM     15  C   UNL     1      48.470  82.065  42.306  0.00  0.00    +0.024 C 
ATOM     16  C   UNL     1      47.288  81.261  41.950  0.00  0.00    +0.032 C 
ATOM     17  C   UNL     1      47.231  79.850  42.348  0.00  0.00    +0.036 C 
ATOM     18  C   UNL     1      46.070  79.066  41.772  0.00  0.00    +0.152 C 
ATOM     19  O   UNL     1      44.984  79.291  42.543  0.00  0.00    -0.223 OA
ATOM     20  C   UNL     1      46.091  81.997  42.474  0.00  0.00    +0.003 C 
ATOM     21  O   UNL     1      48.499  80.345  40.199  0.00  0.00    -0.226 OA
ATOM     22  O   UNL     1      44.495  76.921  41.464  0.00  0.00    -0.223 OA
ENDROOT
BRANCH  15  23
ATOM     23  C   UNL     1      49.743  81.420  42.565  0.00  0.00    +0.005 C 
ATOM     24  C   UNL     1      50.879  81.760  41.975  0.00  0.00    +0.077 C 
ATOM     25  C   UNL     1      51.932  80.907  42.475  0.00  0.00    +0.341 C 
ATOM     26  O   UNL     1      53.145  80.945  42.137  0.00  0.00    -0.245 OA
ATOM     27  O   UNL     1      51.420  80.016  43.400  0.00  0.00    -0.441 OA
ATOM     28  C   UNL     1      50.047  80.371  43.544  0.00  0.00    +0.231 C 
ENDBRANCH  15  23
BRANCH   4  29
ATOM     29  C   UNL     1      45.341  77.803  38.401  0.00  0.00    +0.187 C 
ATOM     30  O   UNL     1      46.606  77.353  38.771  0.00  0.00    -0.220 OA
ENDBRANCH   4  29
BRANCH   1  31
ATOM     31  O   UNL     1      41.312  77.068  39.026  0.00  0.00    -0.331 OA
BRANCH  31  37
ATOM     32  C   UNL     1      39.759  75.490  40.903  0.00  0.00    +0.035 C 
ATOM     33  C   UNL     1      39.120  75.521  39.508  0.00  0.00    +0.151 C 
ATOM     34  C   UNL     1      39.692  74.467  38.625  0.00  0.00    +0.212 C 
ATOM     35  C   UNL     1      40.634  74.949  37.573  0.00  0.00    +0.220 C 
ATOM     36  C   UNL     1      40.288  76.325  37.056  0.00  0.00    +0.241 C 
ATOM     37  C   UNL     1      40.162  77.220  38.297  0.00  0.00    +0.269 C 
ATOM     38  O   UNL     1      39.068  76.787  38.998  0.00  0.00    -0.328 OA
ATOM     39  O   UNL     1      41.341  76.793  36.310  0.00  0.00    -0.215 OA
ATOM     40  O   UNL     1      41.918  74.953  38.095  0.00  0.00    -0.217 OA
ATOM     41  O   UNL     1      40.420  73.581  39.453  0.00  0.00    -0.218 OA
ENDBRANCH  31  37
ENDBRANCH   1  31
TORSDOF 4
