REMARK  Name = Acrisorcin
REMARK  5 active torsions:
REMARK  status: ('A' for Active; 'I' for Inactive)
REMARK    1  A    between atoms: C_2  and  C_3
REMARK    2  A    between atoms: C_3  and  C_4
REMARK    3  A    between atoms: C_4  and  C_5
REMARK    4  A    between atoms: C_5  and  C_6
REMARK    5  A    between atoms: C_6  and  C_7
REMARK                            x       y       z     vdW  Elec       q    Type
REMARK                         _______ _______ _______ _____ _____    ______ ____
ROOT
ATOM      1  C   UNL     1      47.193  80.145  40.772  0.00  0.00    +0.017 A 
ATOM      2  C   UNL     1      45.995  79.798  41.324  0.00  0.00    +0.195 A 
ATOM      3  C   UNL     1      44.853  79.693  40.540  0.00  0.00    +0.084 A 
ATOM      4  C   UNL     1      44.920  79.939  39.184  0.00  0.00    +0.199 A 
ATOM      5  C   UNL     1      46.126  80.287  38.618  0.00  0.00    +0.042 A 
ATOM      6  C   UNL     1      47.239  80.387  39.403  0.00  0.00    +0.002 A 
ATOM      7  O   UNL     1      43.804  79.846  38.361  0.00  0.00    -0.286 OA
ATOM      8  O   UNL     1      45.832  79.526  42.672  0.00  0.00    -0.287 OA
ENDROOT
BRANCH   1   9
ATOM      9  C   UNL     1      48.423  80.334  41.557  0.00  0.00    +0.030 C 
BRANCH   9  10
ATOM     10  C   UNL     1      49.448  81.240  40.927  0.00  0.00    +0.005 C 
BRANCH  10  11
ATOM     11  C   UNL     1      50.642  81.393  41.766  0.00  0.00    +0.000 C 
BRANCH  11  12
ATOM     12  C   UNL     1      51.861  81.991  41.160  0.00  0.00    +0.000 C 
BRANCH  12  14
ATOM     13  C   UNL     1      52.993  83.916  42.359  0.00  0.00    +0.000 C 
ATOM     14  C   UNL     1      52.077  83.444  41.275  0.00  0.00    +0.000 C 
ENDBRANCH  12  14
ENDBRANCH  11  12
ENDBRANCH  10  11
ENDBRANCH   9  10
ENDBRANCH   1   9
TORSDOF 5
REMARK  Name = Acrisorcin
REMARK  5 active torsions:
REMARK  status: ('A' for Active; 'I' for Inactive)
REMARK    1  A    between atoms: C_2  and  C_3
REMARK    2  A    between atoms: C_3  and  C_4
REMARK    3  A    between atoms: C_4  and  C_5
REMARK    4  A    between atoms: C_5  and  C_6
REMARK    5  A    between atoms: C_6  and  C_7
REMARK                            x       y       z     vdW  Elec       q    Type
REMARK                         _______ _______ _______ _____ _____    ______ ____
ROOT
ATOM      1  C   UNL     1      45.840  78.904  39.960  0.00  0.00    +0.000 A 
ATOM      2  C   UNL     1      44.981  79.880  39.486  0.00  0.00    +0.002 A 
ATOM      3  C   UNL     1      45.135  81.177  39.920  0.00  0.00    +0.019 A 
ATOM      4  C   UNL     1      46.140  81.522  40.829  0.00  0.00    +0.083 A 
ATOM      5  C   UNL     1      46.998  80.551  41.304  0.00  0.00    +0.034 A 
ATOM      6  C   UNL     1      46.835  79.254  40.862  0.00  0.00    +0.003 A 
ATOM      7  C   UNL     1      47.996  80.900  42.209  0.00  0.00    +0.092 A 
ATOM      8  C   UNL     1      48.148  82.207  42.644  0.00  0.00    +0.034 A 
ATOM      9  C   UNL     1      49.129  82.581  43.540  0.00  0.00    +0.003 A 
ATOM     10  C   UNL     1      49.277  83.884  43.971  0.00  0.00    +0.000 A 
ATOM     11  C   UNL     1      48.399  84.825  43.472  0.00  0.00    +0.002 A 
ATOM     12  C   UNL     1      47.420  84.446  42.576  0.00  0.00    +0.019 A 
ATOM     13  C   UNL     1      47.266  83.141  42.140  0.00  0.00    +0.083 A 
ATOM     14  N   UNL     1      46.301  82.782  41.261  0.00  0.00    -0.245 NA
ATOM     15  N   UNL     1      48.878  79.922  42.702  0.00  0.00    -0.128 NA
ENDROOT
TORSDOF 0
