REMARK  Name = Acrivastine
REMARK  6 active torsions:
REMARK  status: ('A' for Active; 'I' for Inactive)
REMARK    1  A    between atoms: C_5  and  C_8
REMARK    2  A    between atoms: C_8  and  C_16
REMARK    3  A    between atoms: C_9  and  C_10
REMARK    4  A    between atoms: C_10  and  N_11
REMARK    5  A    between atoms: C_20  and  C_22
REMARK    6  A    between atoms: C_23  and  C_24
REMARK                            x       y       z     vdW  Elec       q    Type
REMARK                         _______ _______ _______ _____ _____    ______ ____
ROOT
ATOM      1  C   UNL     1      47.464  80.845  41.802  0.00  0.00    +0.015 C 
ATOM      2  C   UNL     1      47.261  79.660  42.312  0.00  0.00    -0.007 C 
ENDROOT
BRANCH   1   7
ATOM      3  C   UNL     1      50.830  85.149  43.628  0.00  0.00    +0.031 C 
ATOM      4  C   UNL     1      50.016  83.995  43.174  0.00  0.00    -0.022 A 
ATOM      5  C   UNL     1      50.562  82.856  42.638  0.00  0.00    -0.004 A 
ATOM      6  C   UNL     1      49.744  81.812  42.233  0.00  0.00    -0.000 A 
ATOM      7  C   UNL     1      48.383  81.838  42.331  0.00  0.00    +0.001 A 
ATOM      8  C   UNL     1      47.847  83.011  42.880  0.00  0.00    -0.000 A 
ATOM      9  C   UNL     1      48.655  84.050  43.286  0.00  0.00    -0.004 A 
ENDBRANCH   1   7
BRANCH   1  10
ATOM     10  C   UNL     1      46.641  81.155  40.589  0.00  0.00    +0.081 A 
ATOM     11  C   UNL     1      46.937  82.181  39.738  0.00  0.00    +0.019 A 
ATOM     12  C   UNL     1      46.178  82.385  38.607  0.00  0.00    +0.003 A 
ATOM     13  C   UNL     1      45.110  81.556  38.324  0.00  0.00    +0.019 A 
ATOM     14  C   UNL     1      44.813  80.537  39.170  0.00  0.00    +0.082 A 
ATOM     15  N   UNL     1      45.605  80.374  40.290  0.00  0.00    -0.245 NA
BRANCH  14  16
ATOM     16  C   UNL     1      43.739  79.607  39.001  0.00  0.00    +0.026 C 
ATOM     17  C   UNL     1      42.940  79.209  38.087  0.00  0.00    +0.088 C 
BRANCH  17  18
ATOM     18  C   UNL     1      41.912  78.230  37.929  0.00  0.00    +0.388 C 
ATOM     19  O   UNL     1      41.026  78.240  37.063  0.00  0.00    -0.241 OA
ATOM     20  O   UNL     1      41.870  77.112  38.843  0.00  0.00    -0.241 OA
ENDBRANCH  17  18
ENDBRANCH  14  16
ENDBRANCH   1  10
BRANCH   2  21
ATOM     21  C   UNL     1      46.733  78.501  41.610  0.00  0.00    +0.099 C 
BRANCH  21  22
ATOM     22  N   UNL     1      46.649  77.293  42.377  0.00  0.00    -0.269 NA
ATOM     23  C   UNL     1      46.399  76.130  41.585  0.00  0.00    +0.072 C 
ATOM     24  C   UNL     1      45.567  75.200  42.456  0.00  0.00    +0.019 C 
ATOM     25  C   UNL     1      44.741  76.181  43.253  0.00  0.00    +0.019 C 
ATOM     26  C   UNL     1      45.684  77.335  43.430  0.00  0.00    +0.072 C 
ENDBRANCH  21  22
ENDBRANCH   2  21
TORSDOF 6
