REMARK  Name = Actarit
REMARK  3 active torsions:
REMARK  status: ('A' for Active; 'I' for Inactive)
REMARK    1  A    between atoms: N_4  and  C_5
REMARK    2  A    between atoms: C_8  and  C_11
REMARK    3  A    between atoms: C_11  and  C_12
REMARK                            x       y       z     vdW  Elec       q    Type
REMARK                         _______ _______ _______ _____ _____    ______ ____
ROOT
ATOM      1  C   UNL     1      46.127  80.448  40.722  0.00  0.00    +0.073 A 
ATOM      2  C   UNL     1      46.866  81.534  40.292  0.00  0.00    +0.016 A 
ATOM      3  C   UNL     1      48.131  81.821  40.779  0.00  0.00    -0.002 A 
ATOM      4  C   UNL     1      48.704  81.015  41.726  0.00  0.00    -0.011 A 
ATOM      5  C   UNL     1      47.981  79.933  42.162  0.00  0.00    -0.002 A 
ATOM      6  C   UNL     1      46.704  79.655  41.662  0.00  0.00    +0.016 A 
ENDROOT
BRANCH   1  10
ATOM      7  C   UNL     1      43.335  79.859  38.157  0.00  0.00    +0.097 C 
ATOM      8  C   UNL     1      44.435  80.626  38.859  0.00  0.00    +0.246 C 
ATOM      9  O   UNL     1      44.971  81.592  38.270  0.00  0.00    -0.273 OA
ATOM     10  N   UNL     1      44.849  80.255  40.156  0.00  0.00    -0.179 NA
ENDBRANCH   1  10
BRANCH   4  11
ATOM     11  C   UNL     1      50.050  81.342  42.226  0.00  0.00    +0.140 C 
BRANCH  11  12
ATOM     12  C   UNL     1      50.144  82.803  42.439  0.00  0.00    +0.369 C 
ATOM     13  O   UNL     1      50.804  83.497  41.629  0.00  0.00    -0.245 OA
ATOM     14  O   UNL     1      49.522  83.443  43.513  0.00  0.00    -0.245 OA
ENDBRANCH  11  12
ENDBRANCH   4  11
TORSDOF 3
