REMARK  Name = Adagrasib
REMARK  7 active torsions:
REMARK  status: ('A' for Active; 'I' for Inactive)
REMARK    1  A    between atoms: C_6  and  C_7
REMARK    2  A    between atoms: C_7  and  O_8
REMARK    3  A    between atoms: O_8  and  C_9
REMARK    4  A    between atoms: N_15  and  C_17
REMARK    5  A    between atoms: C_34  and  C_36
REMARK    6  A    between atoms: C_36  and  C_37
REMARK    7  A    between atoms: C_39  and  C_41
REMARK                            x       y       z     vdW  Elec       q    Type
REMARK                         _______ _______ _______ _____ _____    ______ ____
ROOT
ATOM      1  C   UNL     1      43.877  79.911  38.650  0.00  0.00    +0.321 A 
ATOM      2  N   UNL     1      44.371  78.682  38.898  0.00  0.00    -0.197 NA
ATOM      3  C   UNL     1      45.388  78.534  39.742  0.00  0.00    +0.082 A 
ATOM      4  C   UNL     1      45.921  79.677  40.355  0.00  0.00    +0.027 A 
ATOM      5  C   UNL     1      46.984  79.407  41.320  0.00  0.00    +0.052 C 
ATOM      6  C   UNL     1      46.377  78.296  42.258  0.00  0.00    +0.096 C 
ATOM      7  N   UNL     1      46.215  77.093  41.517  0.00  0.00    -0.302 N 
ATOM      8  C   UNL     1      45.955  77.202  40.072  0.00  0.00    +0.137 C 
ATOM      9  C   UNL     1      45.450  80.944  40.123  0.00  0.00    +0.134 A 
ATOM     10  N   UNL     1      44.399  81.005  39.239  0.00  0.00    -0.180 NA
ATOM     11  N   UNL     1      45.997  82.106  40.686  0.00  0.00    -0.290 N 
ATOM     12  C   UNL     1      46.504  83.197  39.904  0.00  0.00    +0.114 C 
ATOM     13  C   UNL     1      48.016  83.101  39.976  0.00  0.00    +0.115 C 
ATOM     14  N   UNL     1      48.373  82.530  41.360  0.00  0.00    -0.271 N 
ATOM     15  C   UNL     1      47.520  82.988  42.359  0.00  0.00    +0.111 C 
ATOM     16  C   UNL     1      46.096  82.338  42.129  0.00  0.00    +0.113 C 
ATOM     17  C   UNL     1      49.482  81.728  41.355  0.00  0.00    +0.277 C 
ATOM     18  O   UNL     1      49.117  80.390  41.286  0.00  0.00    -0.267 OA
ENDROOT
BRANCH   7  19
ATOM     19  C   UNL     1      46.341  75.793  42.024  0.00  0.00    +0.049 A 
ATOM     20  C   UNL     1      47.559  75.149  41.798  0.00  0.00    +0.015 A 
ATOM     21  C   UNL     1      47.856  73.878  42.221  0.00  0.00    +0.001 A 
ATOM     22  C   UNL     1      46.879  73.181  42.925  0.00  0.00    +0.000 A 
ATOM     23  C   UNL     1      45.684  73.796  43.156  0.00  0.00    +0.002 A 
ATOM     24  C   UNL     1      45.386  75.085  42.724  0.00  0.00    +0.024 A 
ATOM     25  C   UNL     1      44.164  75.635  42.980  0.00  0.00    +0.059 A 
ATOM     26  C   UNL     1      43.205  74.876  43.691  0.00  0.00    +0.011 A 
ATOM     27  C   UNL     1      43.523  73.642  44.092  0.00  0.00    +0.001 A 
ATOM     28  C   UNL     1      44.727  73.038  43.865  0.00  0.00    +0.000 A 
ATOM     29 CL   UNL     1      43.730  77.225  42.454  0.00  0.00    -0.082 Cl
ENDBRANCH   7  19
BRANCH  17  30
ATOM     30  C   UNL     1      50.885  81.801  41.402  0.00  0.00    +0.193 C 
ATOM     31  C   UNL     1      51.715  82.311  42.237  0.00  0.00    +0.037 C 
ATOM     32  F   UNL     1      51.550  81.187  40.299  0.00  0.00    -0.199 F 
ENDBRANCH  17  30
BRANCH   1  33
ATOM     33  O   UNL     1      42.815  79.999  37.773  0.00  0.00    -0.445 OA
BRANCH  33  34
ATOM     34  C   UNL     1      42.310  78.996  36.956  0.00  0.00    +0.224 C 
BRANCH  34  40
ATOM     35  C   UNL     1      39.943  76.536  37.563  0.00  0.00    +0.090 C 
ATOM     36  N   UNL     1      40.359  77.532  36.564  0.00  0.00    -0.270 NA
ATOM     37  C   UNL     1      39.159  77.926  35.877  0.00  0.00    +0.072 C 
ATOM     38  C   UNL     1      38.671  79.188  36.553  0.00  0.00    +0.019 C 
ATOM     39  C   UNL     1      39.970  79.850  36.917  0.00  0.00    +0.021 C 
ATOM     40  C   UNL     1      40.863  78.697  37.284  0.00  0.00    +0.102 C 
ENDBRANCH  34  40
ENDBRANCH  33  34
ENDBRANCH   1  33
BRANCH  15  41
ATOM     41  C   UNL     1      47.745  82.911  43.795  0.00  0.00    +0.127 C 
BRANCH  41  42
ATOM     42  C   UNL     1      48.424  81.716  44.276  0.00  0.00    +0.075 C 
ATOM     43  N   UNL     1      48.976  80.742  44.684  0.00  0.00    -0.196 NA
ENDBRANCH  41  42
ENDBRANCH  15  41
TORSDOF 7
