REMARK  Name = Adapalene
REMARK  4 active torsions:
REMARK  status: ('A' for Active; 'I' for Inactive)
REMARK    1  A    between atoms: O_2  and  C_3
REMARK    2  A    between atoms: C_4  and  C_22
REMARK    3  A    between atoms: C_6  and  C_9
REMARK    4  A    between atoms: C_16  and  C_19
REMARK                            x       y       z     vdW  Elec       q    Type
REMARK                         _______ _______ _______ _____ _____    ______ ____
ROOT
ATOM      1  C   UNL     1      47.223  82.408  39.422  0.00  0.00    +0.135 A 
ATOM      2  C   UNL     1      47.321  81.582  40.522  0.00  0.00    +0.011 A 
ATOM      3  C   UNL     1      46.432  80.528  40.578  0.00  0.00    -0.001 A 
ATOM      4  C   UNL     1      45.489  80.296  39.598  0.00  0.00    -0.000 A 
ATOM      5  C   UNL     1      45.435  81.155  38.522  0.00  0.00    +0.003 A 
ATOM      6  C   UNL     1      46.303  82.220  38.424  0.00  0.00    +0.037 A 
ENDROOT
BRANCH   4   7
ATOM      7  C   UNL     1      44.563  79.154  39.710  0.00  0.00    -0.000 A 
ATOM      8  C   UNL     1      43.531  78.962  38.818  0.00  0.00    -0.000 A 
ATOM      9  C   UNL     1      42.652  77.901  38.902  0.00  0.00    +0.000 A 
ATOM     10  C   UNL     1      42.796  76.981  39.917  0.00  0.00    +0.000 A 
ATOM     11  C   UNL     1      43.820  77.149  40.824  0.00  0.00    +0.000 A 
ATOM     12  C   UNL     1      44.703  78.231  40.725  0.00  0.00    -0.000 A 
ATOM     13  C   UNL     1      41.937  75.909  40.032  0.00  0.00    +0.007 A 
ATOM     14  C   UNL     1      40.894  75.717  39.128  0.00  0.00    +0.080 A 
ATOM     15  C   UNL     1      40.741  76.643  38.098  0.00  0.00    +0.007 A 
ATOM     16  C   UNL     1      41.613  77.693  38.018  0.00  0.00    +0.000 A 
BRANCH  14  17
ATOM     17  C   UNL     1      39.992  74.581  39.258  0.00  0.00    +0.388 C 
ATOM     18  O   UNL     1      39.114  74.411  38.389  0.00  0.00    -0.241 OA
ATOM     19  O   UNL     1      40.109  73.716  40.319  0.00  0.00    -0.241 OA
ENDBRANCH  14  17
ENDBRANCH   4   7
BRANCH   2  20
ATOM     20  C   UNL     1      48.328  81.856  41.539  0.00  0.00    +0.022 C 
ATOM     21  C   UNL     1      49.738  81.862  41.061  0.00  0.00    +0.004 C 
ATOM     22  C   UNL     1      50.651  82.143  42.246  0.00  0.00    +0.000 C 
ATOM     23  C   UNL     1      50.465  81.152  43.347  0.00  0.00    +0.000 C 
ATOM     24  C   UNL     1      49.054  81.295  43.873  0.00  0.00    +0.000 C 
ATOM     25  C   UNL     1      48.117  80.934  42.740  0.00  0.00    +0.004 C 
ATOM     26  C   UNL     1      48.767  82.683  44.343  0.00  0.00    +0.000 C 
ATOM     27  C   UNL     1      48.988  83.637  43.194  0.00  0.00    +0.000 C 
ATOM     28  C   UNL     1      50.432  83.534  42.786  0.00  0.00    +0.000 C 
ATOM     29  C   UNL     1      48.034  83.264  42.082  0.00  0.00    +0.004 C 
ENDBRANCH   2  20
BRANCH   1  31
ATOM     30  C   UNL     1      48.118  84.249  38.157  0.00  0.00    +0.252 C 
ATOM     31  O   UNL     1      48.093  83.472  39.330  0.00  0.00    -0.472 OA
ENDBRANCH   1  31
TORSDOF 4
