REMARK  Name = Adefovir_Dipivoxil
REMARK  15 active torsions:
REMARK  status: ('A' for Active; 'I' for Inactive)
REMARK    1  A    between atoms: C_2  and  C_5
REMARK    2  A    between atoms: C_5  and  O_7
REMARK    3  A    between atoms: O_7  and  C_8
REMARK    4  A    between atoms: C_8  and  O_9
REMARK    5  A    between atoms: O_9  and  P_10
REMARK    6  A    between atoms: P_10  and  C_12
REMARK    7  A    between atoms: P_10  and  O_26
REMARK    8  A    between atoms: C_12  and  O_13
REMARK    9  A    between atoms: O_13  and  C_14
REMARK   10  A    between atoms: C_14  and  C_15
REMARK   11  A    between atoms: C_15  and  N_16
REMARK   12  A    between atoms: O_26  and  C_27
REMARK   13  A    between atoms: C_27  and  O_28
REMARK   14  A    between atoms: O_28  and  C_29
REMARK   15  A    between atoms: C_29  and  C_31
REMARK                            x       y       z     vdW  Elec       q    Type
REMARK                         _______ _______ _______ _____ _____    ______ ____
ROOT
ATOM      1  P   UNL     1      48.952  79.662  43.455  0.00  0.00    +0.378 P 
ATOM      2  O   UNL     1      48.855  78.618  42.365  0.00  0.00    -0.255 OA
ENDROOT
BRANCH   1   3
ATOM      3  O   UNL     1      48.337  79.016  44.906  0.00  0.00    -0.250 OA
BRANCH   3   4
ATOM      4  C   UNL     1      47.041  78.636  44.664  0.00  0.00    +0.369 C 
BRANCH   4   5
ATOM      5  O   UNL     1      46.968  77.475  43.840  0.00  0.00    -0.419 OA
BRANCH   5   6
ATOM      6  C   UNL     1      45.759  76.811  43.685  0.00  0.00    +0.318 C 
ATOM      7  O   UNL     1      44.794  77.232  44.370  0.00  0.00    -0.250 OA
BRANCH   6   9
ATOM      8  C   UNL     1      44.742  74.619  43.456  0.00  0.00    +0.011 C 
ATOM      9  C   UNL     1      45.577  75.666  42.772  0.00  0.00    +0.090 C 
ATOM     10  C   UNL     1      44.955  76.088  41.445  0.00  0.00    +0.011 C 
ATOM     11  C   UNL     1      46.953  75.037  42.518  0.00  0.00    +0.011 C 
ENDBRANCH   6   9
ENDBRANCH   5   6
ENDBRANCH   4   5
ENDBRANCH   3   4
ENDBRANCH   1   3
BRANCH   1  12
ATOM     12  C   UNL     1      48.017  81.164  42.996  0.00  0.00    +0.258 C 
BRANCH  12  13
ATOM     13  O   UNL     1      46.706  80.804  42.819  0.00  0.00    -0.340 OA
BRANCH  13  14
ATOM     14  C   UNL     1      45.941  81.753  42.176  0.00  0.00    +0.167 C 
BRANCH  14  15
ATOM     15  C   UNL     1      46.582  82.254  40.901  0.00  0.00    +0.141 C 
BRANCH  15  16
ATOM     16  N   UNL     1      45.770  81.801  39.785  0.00  0.00    -0.292 N 
ATOM     17  C   UNL     1      45.506  82.468  38.631  0.00  0.00    +0.180 A 
ATOM     18  N   UNL     1      44.721  81.737  37.839  0.00  0.00    -0.219 NA
ATOM     19  C   UNL     1      44.452  80.576  38.452  0.00  0.00    +0.152 A 
ATOM     20  C   UNL     1      43.727  79.447  38.162  0.00  0.00    +0.192 A 
ATOM     21  N   UNL     1      43.645  78.412  39.010  0.00  0.00    -0.204 NA
ATOM     22  C   UNL     1      44.293  78.473  40.192  0.00  0.00    +0.202 A 
ATOM     23  N   UNL     1      45.001  79.571  40.482  0.00  0.00    -0.205 NA
ATOM     24  C   UNL     1      45.108  80.629  39.658  0.00  0.00    +0.167 A 
ATOM     25  N   UNL     1      43.050  79.400  36.910  0.00  0.00    -0.105 NA
ENDBRANCH  15  16
ENDBRANCH  14  15
ENDBRANCH  13  14
ENDBRANCH  12  13
ENDBRANCH   1  12
BRANCH   1  26
ATOM     26  O   UNL     1      50.561  80.079  43.639  0.00  0.00    -0.250 OA
BRANCH  26  27
ATOM     27  C   UNL     1      51.012  80.953  42.682  0.00  0.00    +0.369 C 
BRANCH  27  28
ATOM     28  O   UNL     1      50.599  82.263  43.023  0.00  0.00    -0.419 OA
BRANCH  28  29
ATOM     29  C   UNL     1      50.978  83.358  42.257  0.00  0.00    +0.318 C 
ATOM     30  O   UNL     1      51.687  83.130  41.246  0.00  0.00    -0.250 OA
BRANCH  29  31
ATOM     31  C   UNL     1      50.547  84.726  42.644  0.00  0.00    +0.090 C 
ATOM     32  C   UNL     1      51.097  85.700  41.625  0.00  0.00    +0.011 C 
ATOM     33  C   UNL     1      49.056  84.756  42.721  0.00  0.00    +0.011 C 
ATOM     34  C   UNL     1      51.177  85.011  44.003  0.00  0.00    +0.011 C 
ENDBRANCH  29  31
ENDBRANCH  28  29
ENDBRANCH  27  28
ENDBRANCH  26  27
ENDBRANCH   1  26
TORSDOF 15
