REMARK  Name = Ademetionine
REMARK  7 active torsions:
REMARK  status: ('A' for Active; 'I' for Inactive)
REMARK    1  A    between atoms: S_2  and  C_3
REMARK    2  A    between atoms: S_2  and  C_10
REMARK    3  A    between atoms: C_3  and  C_4
REMARK    4  A    between atoms: C_4  and  CA_5
REMARK    5  A    between atoms: CA_5  and  C_6
REMARK    6  A    between atoms: C_10  and  C_11
REMARK    7  A    between atoms: C_14  and  N_16
REMARK                            x       y       z     vdW  Elec       q    Type
REMARK                         _______ _______ _______ _____ _____    ______ ____
ROOT
ATOM      1  C   UNL     1      46.655  76.484  42.652  0.00  0.00    +0.160 C 
ATOM      2  C   UNL     1      45.163  76.489  42.825  0.00  0.00    +0.214 C 
ATOM      3  C   UNL     1      44.662  77.076  41.540  0.00  0.00    +0.234 C 
ATOM      4  C   UNL     1      45.885  77.450  40.769  0.00  0.00    +0.241 C 
ATOM      5  O   UNL     1      46.903  76.704  41.329  0.00  0.00    -0.332 OA
ATOM      6  O   UNL     1      43.823  78.169  41.781  0.00  0.00    -0.216 OA
ATOM      7  O   UNL     1      44.667  75.176  42.940  0.00  0.00    -0.218 OA
ENDROOT
BRANCH   4   8
ATOM      8  N   UNL     1      46.165  78.868  40.717  0.00  0.00    -0.269 N 
ATOM      9  C   UNL     1      47.039  79.564  41.481  0.00  0.00    +0.182 A 
ATOM     10  N   UNL     1      47.025  80.862  41.143  0.00  0.00    -0.219 NA
ATOM     11  C   UNL     1      46.133  81.023  40.147  0.00  0.00    +0.152 A 
ATOM     12  C   UNL     1      45.733  82.138  39.440  0.00  0.00    +0.192 A 
ATOM     13  N   UNL     1      44.803  81.955  38.487  0.00  0.00    -0.204 NA
ATOM     14  C   UNL     1      44.269  80.753  38.214  0.00  0.00    +0.202 A 
ATOM     15  N   UNL     1      44.677  79.689  38.916  0.00  0.00    -0.205 NA
ATOM     16  C   UNL     1      45.602  79.761  39.890  0.00  0.00    +0.169 A 
ATOM     17  N   UNL     1      46.289  83.425  39.716  0.00  0.00    -0.105 NA
ENDBRANCH   4   8
BRANCH   1  18
ATOM     18  C   UNL     1      47.236  75.189  43.172  0.00  0.00    +0.080 C 
BRANCH  18  20
ATOM     19  C   UNL     1      48.181  75.208  40.466  0.00  0.00    +0.059 C 
ATOM     20  S   UNL     1      47.831  74.151  41.856  0.00  0.00    -0.176 S 
BRANCH  20  21
ATOM     21  C   UNL     1      49.396  73.495  42.398  0.00  0.00    +0.050 C 
BRANCH  21  22
ATOM     22  C   UNL     1      49.984  74.340  43.508  0.00  0.00    +0.041 C 
BRANCH  22  23
ATOM     23  CA  UNL     1      51.019  73.573  44.297  0.00  0.00    +0.195 C 
ATOM     24  N   UNL     1      50.724  72.169  44.350  0.00  0.00    -0.121 NA
BRANCH  23  25
ATOM     25  C   UNL     1      51.104  74.106  45.669  0.00  0.00    +0.382 C 
ATOM     26  O   UNL     1      50.793  75.308  45.898  0.00  0.00    -0.244 OA
ATOM     27  OXT UNL     1      51.530  73.256  46.681  0.00  0.00    -0.244 OA
ENDBRANCH  23  25
ENDBRANCH  22  23
ENDBRANCH  21  22
ENDBRANCH  20  21
ENDBRANCH  18  20
ENDBRANCH   1  18
TORSDOF 7
