REMARK  Name = Adenosine
REMARK  2 active torsions:
REMARK  status: ('A' for Active; 'I' for Inactive)
REMARK    1  A    between atoms: N9_7  and  C1*_10
REMARK    2  A    between atoms: C4*_13  and  C5*_15
REMARK                            x       y       z     vdW  Elec       q    Type
REMARK                         _______ _______ _______ _____ _____    ______ ____
ROOT
ATOM      1  C2    A A   1      44.124  79.924  38.697  0.00  0.00    +0.202 A 
ATOM      2  N1    A A   1      44.646  81.141  38.467  0.00  0.00    -0.204 NA
ATOM      3  C6    A A   1      45.661  81.646  39.203  0.00  0.00    +0.192 A 
ATOM      4  C5    A A   1      46.144  80.847  40.217  0.00  0.00    +0.152 A 
ATOM      5  C4    A A   1      45.595  79.601  40.439  0.00  0.00    +0.169 A 
ATOM      6  N3    A A   1      44.591  79.140  39.685  0.00  0.00    -0.205 NA
ATOM      7  N9    A A   1      46.254  79.036  41.488  0.00  0.00    -0.269 N 
ATOM      8  C8    A A   1      47.180  79.930  41.884  0.00  0.00    +0.182 A 
ATOM      9  N7    A A   1      47.123  81.041  41.115  0.00  0.00    -0.219 NA
ATOM     10  N6    A A   1      46.186  82.938  38.927  0.00  0.00    -0.105 NA
ENDROOT
BRANCH   7  11
ATOM     11  C1*   A A   1      46.011  77.722  42.072  0.00  0.00    +0.241 C 
ATOM     12  C2*   A A   1      45.462  76.847  40.963  0.00  0.00    +0.234 C 
ATOM     13  C3*   A A   1      43.981  77.084  41.192  0.00  0.00    +0.216 C 
ATOM     14  C4*   A A   1      43.955  77.085  42.692  0.00  0.00    +0.183 C 
ATOM     15  O4*   A A   1      45.062  77.801  43.054  0.00  0.00    -0.331 OA
ATOM     16  O3*   A A   1      43.695  78.361  40.739  0.00  0.00    -0.218 OA
ATOM     17  O2*   A A   1      45.868  77.241  39.709  0.00  0.00    -0.216 OA
BRANCH  14  18
ATOM     18  C5*   A A   1      44.006  75.691  43.281  0.00  0.00    +0.214 C 
ATOM     19  O5*   A A   1      45.308  75.483  43.740  0.00  0.00    -0.218 OA
ENDBRANCH  14  18
ENDBRANCH   7  11
TORSDOF 2
