REMARK  Name = Adenosine_triphosphate
REMARK  8 active torsions:
REMARK  status: ('A' for Active; 'I' for Inactive)
REMARK    1  A    between atoms: N_7  and  C_10
REMARK    2  A    between atoms: C_13  and  C_15
REMARK    3  A    between atoms: C_15  and  O_16
REMARK    4  A    between atoms: O_16  and  P_17
REMARK    5  A    between atoms: P_17  and  O_20
REMARK    6  A    between atoms: O_20  and  P_21
REMARK    7  A    between atoms: P_21  and  O_24
REMARK    8  A    between atoms: O_24  and  P_25
REMARK                            x       y       z     vdW  Elec       q    Type
REMARK                         _______ _______ _______ _____ _____    ______ ____
ROOT
ATOM      1  C   UNL     1      44.269  77.861  40.864  0.00  0.00    +0.241 C 
ATOM      2  C   UNL     1      45.068  76.736  40.256  0.00  0.00    +0.234 C 
ATOM      3  C   UNL     1      45.207  75.786  41.429  0.00  0.00    +0.216 C 
ATOM      4  C   UNL     1      45.168  76.785  42.568  0.00  0.00    +0.180 C 
ATOM      5  O   UNL     1      44.077  77.568  42.191  0.00  0.00    -0.331 OA
ATOM      6  O   UNL     1      44.095  74.965  41.538  0.00  0.00    -0.218 OA
ATOM      7  O   UNL     1      44.445  76.158  39.171  0.00  0.00    -0.216 OA
ENDROOT
BRANCH   1  14
ATOM      8  C   UNL     1      44.080  81.247  37.955  0.00  0.00    +0.202 A 
ATOM      9  N   UNL     1      44.949  82.238  38.230  0.00  0.00    -0.204 NA
ATOM     10  C   UNL     1      45.782  82.201  39.276  0.00  0.00    +0.192 A 
ATOM     11  C   UNL     1      45.722  81.083  40.088  0.00  0.00    +0.152 A 
ATOM     12  C   UNL     1      44.848  80.043  39.843  0.00  0.00    +0.169 A 
ATOM     13  N   UNL     1      44.042  80.174  38.757  0.00  0.00    -0.205 NA
ATOM     14  N   UNL     1      45.012  79.109  40.783  0.00  0.00    -0.269 N 
ATOM     15  C   UNL     1      45.974  79.546  41.611  0.00  0.00    +0.182 A 
ATOM     16  N   UNL     1      46.411  80.744  41.196  0.00  0.00    -0.219 NA
ATOM     17  N   UNL     1      46.703  83.255  39.565  0.00  0.00    -0.105 NA
ENDBRANCH   1  14
BRANCH   4  18
ATOM     18  C   UNL     1      44.961  76.123  43.902  0.00  0.00    +0.186 C 
BRANCH  18  19
ATOM     19  O   UNL     1      45.255  74.772  43.754  0.00  0.00    -0.269 OA
BRANCH  19  20
ATOM     20  P   UNL     1      46.796  74.387  44.305  0.00  0.00    +0.514 P 
ATOM     21  O   UNL     1      47.105  75.301  45.473  0.00  0.00    -0.224 OA
ATOM     22  O   UNL     1      47.975  74.603  43.125  0.00  0.00    -0.116 OA
BRANCH  20  23
ATOM     23  O   UNL     1      46.776  72.809  44.870  0.00  0.00    -0.183 OA
BRANCH  23  24
ATOM     24  P   UNL     1      46.894  71.725  43.562  0.00  0.00    +0.522 P 
ATOM     25  O   UNL     1      45.556  71.707  42.858  0.00  0.00    -0.224 OA
ATOM     26  O   UNL     1      48.111  72.300  42.543  0.00  0.00    -0.116 OA
BRANCH  24  27
ATOM     27  O   UNL     1      47.258  70.177  44.144  0.00  0.00    -0.181 OA
BRANCH  27  28
ATOM     28  P   UNL     1      48.593  70.278  45.155  0.00  0.00    +0.540 P 
ATOM     29  O   UNL     1      49.004  68.907  45.687  0.00  0.00    -0.222 OA
ATOM     30  O   UNL     1      49.902  70.936  44.304  0.00  0.00    -0.114 OA
ATOM     31  O   UNL     1      48.218  71.248  46.482  0.00  0.00    -0.114 OA
ENDBRANCH  27  28
ENDBRANCH  24  27
ENDBRANCH  23  24
ENDBRANCH  20  23
ENDBRANCH  19  20
ENDBRANCH  18  19
ENDBRANCH   4  18
TORSDOF 8
