REMARK  Name = Adenine
REMARK  0 active torsions:
REMARK  status: ('A' for Active; 'I' for Inactive)
REMARK                            x       y       z     vdW  Elec       q    Type
REMARK                         _______ _______ _______ _____ _____    ______ ____
ROOT
ATOM      1  C   UNL     1      47.774  82.797  40.072  0.00  0.00    +0.200 A 
ATOM      2  N   UNL     1      46.927  82.973  39.044  0.00  0.00    -0.203 NA
ATOM      3  C   UNL     1      46.040  81.964  38.971  0.00  0.00    +0.186 A 
ATOM      4  N   UNL     1      45.011  81.663  38.156  0.00  0.00    -0.203 NA
ATOM      5  C   UNL     1      44.272  80.557  38.317  0.00  0.00    +0.202 A 
ATOM      6  N   UNL     1      44.584  79.738  39.330  0.00  0.00    -0.204 NA
ATOM      7  C   UNL     1      45.594  79.983  40.173  0.00  0.00    +0.192 A 
ATOM      8  C   UNL     1      46.346  81.112  40.006  0.00  0.00    +0.153 A 
ATOM      9  N   UNL     1      47.413  81.647  40.664  0.00  0.00    -0.218 NA
ATOM     10  N   UNL     1      45.901  79.094  41.239  0.00  0.00    -0.105 NA
ENDROOT
TORSDOF 0
