REMARK  Name = Adenosine_monophosphate
REMARK  4 active torsions:
REMARK  status: ('A' for Active; 'I' for Inactive)
REMARK    1  A    between atoms: N_7  and  C_10
REMARK    2  A    between atoms: C_13  and  C_15
REMARK    3  A    between atoms: C_15  and  O_16
REMARK    4  A    between atoms: O_16  and  P_17
REMARK                            x       y       z     vdW  Elec       q    Type
REMARK                         _______ _______ _______ _____ _____    ______ ____
ROOT
ATOM      1  C   UNL     1      45.415  77.555  41.017  0.00  0.00    +0.241 C 
ATOM      2  C   UNL     1      43.964  77.505  41.373  0.00  0.00    +0.234 C 
ATOM      3  C   UNL     1      43.940  76.479  42.489  0.00  0.00    +0.216 C 
ATOM      4  C   UNL     1      45.313  75.845  42.328  0.00  0.00    +0.180 C 
ATOM      5  O   UNL     1      46.103  76.956  42.072  0.00  0.00    -0.331 OA
ATOM      6  O   UNL     1      42.937  75.538  42.305  0.00  0.00    -0.218 OA
ATOM      7  O   UNL     1      43.171  77.080  40.308  0.00  0.00    -0.216 OA
ENDROOT
BRANCH   1  14
ATOM      8  C   UNL     1      44.288  80.627  37.943  0.00  0.00    +0.202 A 
ATOM      9  N   UNL     1      45.037  81.748  38.031  0.00  0.00    -0.204 NA
ATOM     10  C   UNL     1      46.005  81.927  38.930  0.00  0.00    +0.192 A 
ATOM     11  C   UNL     1      46.246  80.889  39.823  0.00  0.00    +0.152 A 
ATOM     12  C   UNL     1      45.496  79.725  39.760  0.00  0.00    +0.169 A 
ATOM     13  N   UNL     1      44.546  79.641  38.821  0.00  0.00    -0.205 NA
ATOM     14  N   UNL     1      45.904  78.871  40.713  0.00  0.00    -0.269 N 
ATOM     15  C   UNL     1      46.901  79.505  41.361  0.00  0.00    +0.182 A 
ATOM     16  N   UNL     1      47.102  80.723  40.819  0.00  0.00    -0.219 NA
ATOM     17  N   UNL     1      46.774  83.105  39.004  0.00  0.00    -0.105 NA
ENDBRANCH   1  14
BRANCH   4  18
ATOM     18  C   UNL     1      45.728  75.115  43.579  0.00  0.00    +0.186 C 
BRANCH  18  19
ATOM     19  O   UNL     1      47.052  75.502  43.850  0.00  0.00    -0.268 OA
BRANCH  19  20
ATOM     20  P   UNL     1      47.169  76.354  45.289  0.00  0.00    +0.533 P 
ATOM     21  O   UNL     1      46.839  77.805  45.036  0.00  0.00    -0.222 OA
ATOM     22  O   UNL     1      46.089  75.727  46.441  0.00  0.00    -0.115 OA
ATOM     23  O   UNL     1      48.713  76.254  45.935  0.00  0.00    -0.115 OA
ENDBRANCH  19  20
ENDBRANCH  18  19
ENDBRANCH   4  18
TORSDOF 4
