REMARK  Name = Adinazolam
REMARK  3 active torsions:
REMARK  status: ('A' for Active; 'I' for Inactive)
REMARK    1  A    between atoms: N_2  and  C_4
REMARK    2  A    between atoms: C_4  and  C_5
REMARK    3  A    between atoms: C_17  and  C_20
REMARK                            x       y       z     vdW  Elec       q    Type
REMARK                         _______ _______ _______ _____ _____    ______ ____
ROOT
ATOM      1  C   UNL     1      44.745  79.920  38.448  0.00  0.00    +0.163 A 
ATOM      2  N   UNL     1      44.480  80.928  37.549  0.00  0.00    -0.132 NA
ATOM      3  N   UNL     1      44.739  82.111  38.096  0.00  0.00    -0.131 NA
ATOM      4  C   UNL     1      45.171  81.930  39.341  0.00  0.00    +0.172 A 
ATOM      5  N   UNL     1      45.157  80.570  39.518  0.00  0.00    -0.278 N 
ATOM      6  C   UNL     1      45.542  79.907  40.719  0.00  0.00    +0.068 A 
ATOM      7  C   UNL     1      46.575  80.374  41.546  0.00  0.00    +0.034 A 
ATOM      8  C   UNL     1      46.866  79.691  42.700  0.00  0.00    +0.014 A 
ATOM      9  C   UNL     1      46.138  78.561  43.008  0.00  0.00    +0.058 A 
ATOM     10  C   UNL     1      45.115  78.127  42.157  0.00  0.00    +0.013 A 
ATOM     11  C   UNL     1      44.799  78.805  40.989  0.00  0.00    +0.019 A 
ATOM     12 CL   UNL     1      46.529  77.706  44.462  0.00  0.00    -0.082 Cl
ATOM     13  C   UNL     1      47.411  81.541  41.391  0.00  0.00    +0.078 C 
ATOM     14  N   UNL     1      46.954  82.652  40.850  0.00  0.00    -0.262 NA
ATOM     15  C   UNL     1      45.623  82.963  40.314  0.00  0.00    +0.191 C 
ENDROOT
BRANCH  13  16
ATOM     16  C   UNL     1      48.759  81.569  41.856  0.00  0.00    +0.017 A 
ATOM     17  C   UNL     1      49.583  80.462  41.554  0.00  0.00    +0.001 A 
ATOM     18  C   UNL     1      50.854  80.327  42.033  0.00  0.00    +0.000 A 
ATOM     19  C   UNL     1      51.372  81.304  42.847  0.00  0.00    +0.000 A 
ATOM     20  C   UNL     1      50.590  82.384  43.152  0.00  0.00    +0.000 A 
ATOM     21  C   UNL     1      49.313  82.506  42.664  0.00  0.00    +0.001 A 
ENDBRANCH  13  16
BRANCH   1  22
ATOM     22  C   UNL     1      44.702  78.494  38.180  0.00  0.00    +0.139 C 
BRANCH  22  24
ATOM     23  C   UNL     1      42.471  79.202  37.891  0.00  0.00    +0.090 C 
ATOM     24  N   UNL     1      43.372  78.103  37.762  0.00  0.00    -0.264 NA
ATOM     25  C   UNL     1      42.919  76.897  38.405  0.00  0.00    +0.090 C 
ENDBRANCH  22  24
ENDBRANCH   1  22
TORSDOF 3
