REMARK  Name = Agrimophol
REMARK  9 active torsions:
REMARK  status: ('A' for Active; 'I' for Inactive)
REMARK    1  A    between atoms: C_2  and  C_3
REMARK    2  A    between atoms: C_3  and  C_4
REMARK    3  A    between atoms: C_4  and  C_6
REMARK    4  A    between atoms: C_7  and  O_33
REMARK    5  A    between atoms: C_10  and  C_13
REMARK    6  A    between atoms: C_13  and  C_14
REMARK    7  A    between atoms: C_18  and  C_21
REMARK    8  A    between atoms: C_21  and  C_23
REMARK    9  A    between atoms: C_23  and  C_25
REMARK                            x       y       z     vdW  Elec       q    Type
REMARK                         _______ _______ _______ _____ _____    ______ ____
ROOT
ATOM      1  C   UNL     1      45.038  80.219  40.984  0.00  0.00    +0.047 C 
ENDROOT
BRANCH   1   2
ATOM      2  C   UNL     1      46.358  80.287  40.302  0.00  0.00    +0.115 C 
ATOM      3  C   UNL     1      46.216  81.155  39.115  0.00  0.00    +0.179 C 
ATOM      4  C   UNL     1      46.883  82.261  38.968  0.00  0.00    +0.052 C 
ATOM      5  C   UNL     1      47.827  82.696  40.004  0.00  0.00    +0.200 C 
ATOM      6  C   UNL     1      48.058  82.023  41.109  0.00  0.00    +0.108 C 
ATOM      7  C   UNL     1      47.328  80.783  41.300  0.00  0.00    +0.185 C 
ATOM      8  O   UNL     1      47.472  80.045  42.331  0.00  0.00    -0.291 OA
ATOM      9  O   UNL     1      48.488  83.882  39.771  0.00  0.00    -0.287 OA
ATOM     10  C   UNL     1      46.687  83.100  37.733  0.00  0.00    +0.037 C 
ATOM     11  O   UNL     1      45.331  80.755  38.127  0.00  0.00    -0.291 OA
ATOM     12  C   UNL     1      46.904  78.970  39.801  0.00  0.00    +0.016 C 
BRANCH   6  13
ATOM     13  C   UNL     1      48.994  82.389  42.145  0.00  0.00    +0.178 C 
ATOM     14  O   UNL     1      49.788  81.490  42.598  0.00  0.00    -0.291 OA
BRANCH  13  15
ATOM     15  C   UNL     1      49.054  83.763  42.688  0.00  0.00    +0.062 C 
ATOM     16  C   UNL     1      50.144  83.794  43.745  0.00  0.00    +0.008 C 
BRANCH  15  17
ATOM     17  C   UNL     1      47.738  84.123  43.381  0.00  0.00    +0.008 C 
ATOM     18  C   UNL     1      47.775  85.600  43.685  0.00  0.00    +0.000 C 
ENDBRANCH  15  17
ENDBRANCH  13  15
ENDBRANCH   6  13
ENDBRANCH   1   2
BRANCH   1  23
ATOM     19  C   UNL     1      42.636  77.645  39.726  0.00  0.00    +0.107 A 
ATOM     20  C   UNL     1      42.790  76.613  40.631  0.00  0.00    +0.144 A 
ATOM     21  C   UNL     1      43.695  76.798  41.654  0.00  0.00    +0.051 A 
ATOM     22  C   UNL     1      44.441  77.966  41.796  0.00  0.00    +0.194 A 
ATOM     23  C   UNL     1      44.283  78.985  40.893  0.00  0.00    +0.056 A 
ATOM     24  C   UNL     1      43.363  78.801  39.853  0.00  0.00    +0.200 A 
ATOM     25  O   UNL     1      43.168  79.815  38.911  0.00  0.00    -0.287 OA
ATOM     26  O   UNL     1      45.315  78.025  42.871  0.00  0.00    -0.287 OA
ATOM     27  C   UNL     1      43.883  75.724  42.631  0.00  0.00    +0.038 C 
BRANCH  19  28
ATOM     28  C   UNL     1      41.674  77.442  38.648  0.00  0.00    +0.179 C 
ATOM     29  O   UNL     1      41.386  76.273  38.312  0.00  0.00    -0.291 OA
BRANCH  28  30
ATOM     30  C   UNL     1      41.053  78.580  37.967  0.00  0.00    +0.069 C 
BRANCH  30  32
ATOM     31  C   UNL     1      38.825  77.951  37.145  0.00  0.00    +0.000 C 
ATOM     32  C   UNL     1      40.272  78.070  36.768  0.00  0.00    +0.008 C 
ENDBRANCH  30  32
ENDBRANCH  28  30
ENDBRANCH  19  28
BRANCH  20  33
ATOM     33  O   UNL     1      42.096  75.413  40.576  0.00  0.00    -0.471 OA
ATOM     34  C   UNL     1      41.001  75.118  41.420  0.00  0.00    +0.252 C 
ENDBRANCH  20  33
ENDBRANCH   1  23
TORSDOF 9
