REMARK  Name = Ajmaline
REMARK  1 active torsions:
REMARK  status: ('A' for Active; 'I' for Inactive)
REMARK    1  A    between atoms: C_2  and  C_3
REMARK                            x       y       z     vdW  Elec       q    Type
REMARK                         _______ _______ _______ _____ _____    ______ ____
ROOT
ATOM      1  C   UNL     1      46.866  81.712  39.701  0.00  0.00    +0.046 C 
ATOM      2  C   UNL     1      46.950  80.258  40.136  0.00  0.00    +0.009 C 
ATOM      3  C   UNL     1      46.470  79.492  38.895  0.00  0.00    +0.018 C 
ATOM      4  C   UNL     1      44.936  79.607  38.916  0.00  0.00    +0.078 C 
ATOM      5  C   UNL     1      44.456  78.374  39.557  0.00  0.00    +0.094 C 
ATOM      6  C   UNL     1      44.394  78.416  41.065  0.00  0.00    +0.067 C 
ATOM      7  C   UNL     1      43.646  79.680  41.437  0.00  0.00    +0.024 C 
ATOM      8  C   UNL     1      44.678  80.709  41.032  0.00  0.00    +0.063 C 
ATOM      9  C   UNL     1      46.016  80.081  41.300  0.00  0.00    +0.046 C 
ATOM     10  C   UNL     1      45.738  78.613  41.622  0.00  0.00    +0.158 C 
ATOM     11  O   UNL     1      46.716  77.776  41.130  0.00  0.00    -0.223 OA
ATOM     12  N   UNL     1      44.572  80.828  39.569  0.00  0.00    -0.249 NA
ATOM     13  C   UNL     1      45.468  81.948  39.243  0.00  0.00    +0.212 C 
ATOM     14  O   UNL     1      45.358  82.314  37.920  0.00  0.00    -0.205 OA
ATOM     15  C   UNL     1      43.673  77.201  41.380  0.00  0.00    -0.005 A 
ATOM     16  C   UNL     1      43.571  76.333  42.452  0.00  0.00    -0.003 A 
ATOM     17  C   UNL     1      42.756  75.229  42.443  0.00  0.00    -0.000 A 
ATOM     18  C   UNL     1      41.995  74.948  41.328  0.00  0.00    +0.001 A 
ATOM     19  C   UNL     1      42.069  75.789  40.237  0.00  0.00    +0.014 A 
ATOM     20  C   UNL     1      42.901  76.904  40.264  0.00  0.00    +0.044 A 
ATOM     21  N   UNL     1      43.148  77.906  39.260  0.00  0.00    -0.306 N 
ATOM     22  C   UNL     1      42.223  78.281  38.231  0.00  0.00    +0.112 C 
ENDROOT
BRANCH   1  24
ATOM     23  C   UNL     1      48.824  82.963  40.498  0.00  0.00    +0.000 C 
ATOM     24  C   UNL     1      47.359  82.664  40.727  0.00  0.00    +0.004 C 
ENDBRANCH   1  24
TORSDOF 1
