REMARK  Name = Ajmalicine
REMARK  2 active torsions:
REMARK  status: ('A' for Active; 'I' for Inactive)
REMARK    1  A    between atoms: C_13  and  C_16
REMARK    2  A    between atoms: C_16  and  O_18
REMARK                            x       y       z     vdW  Elec       q    Type
REMARK                         _______ _______ _______ _____ _____    ______ ____
ROOT
ATOM      1  C   UNL     1      42.533  79.499  37.608  0.00  0.00    +0.047 C 
ATOM      2  C   UNL     1      42.782  79.299  39.101  0.00  0.00    +0.168 C 
ATOM      3  C   UNL     1      44.273  79.295  39.291  0.00  0.00    +0.060 C 
ATOM      4  C   UNL     1      44.885  80.663  39.072  0.00  0.00    +0.076 C 
ATOM      5  N   UNL     1      46.298  80.415  38.899  0.00  0.00    -0.269 NA
ATOM      6  C   UNL     1      47.023  81.503  38.340  0.00  0.00    +0.077 C 
ATOM      7  C   UNL     1      46.876  82.686  39.308  0.00  0.00    +0.045 C 
ATOM      8  C   UNL     1      47.464  82.221  40.590  0.00  0.00    -0.004 A 
ATOM      9  C   UNL     1      47.497  80.889  40.934  0.00  0.00    +0.070 A 
ATOM     10  C   UNL     1      46.934  79.828  40.020  0.00  0.00    +0.098 C 
ATOM     11  C   UNL     1      46.165  78.817  40.771  0.00  0.00    +0.027 C 
ATOM     12  C   UNL     1      44.691  78.860  40.664  0.00  0.00    +0.038 C 
ATOM     13  C   UNL     1      44.040  77.556  40.949  0.00  0.00    +0.090 C 
ATOM     14  C   UNL     1      42.907  77.192  40.352  0.00  0.00    +0.174 C 
ATOM     15  O   UNL     1      42.308  78.034  39.443  0.00  0.00    -0.476 OA
ATOM     16  N   UNL     1      48.078  80.808  42.121  0.00  0.00    -0.249 NA
ATOM     17  C   UNL     1      48.440  82.011  42.602  0.00  0.00    +0.081 A 
ATOM     18  C   UNL     1      49.054  82.486  43.743  0.00  0.00    +0.019 A 
ATOM     19  C   UNL     1      49.300  83.821  43.961  0.00  0.00    +0.002 A 
ATOM     20  C   UNL     1      48.914  84.726  42.995  0.00  0.00    +0.000 A 
ATOM     21  C   UNL     1      48.296  84.263  41.844  0.00  0.00    +0.001 A 
ATOM     22  C   UNL     1      48.048  82.924  41.622  0.00  0.00    +0.015 A 
ENDROOT
BRANCH  13  23
ATOM     23  C   UNL     1      44.620  76.608  41.908  0.00  0.00    +0.340 C 
ATOM     24  O   UNL     1      45.549  76.934  42.688  0.00  0.00    -0.245 OA
BRANCH  23  25
ATOM     25  O   UNL     1      44.169  75.299  42.002  0.00  0.00    -0.441 OA
ATOM     26  C   UNL     1      44.243  74.596  43.236  0.00  0.00    +0.256 C 
ENDBRANCH  23  25
ENDBRANCH  13  23
TORSDOF 2
