REMARK  Name = Alacepril
REMARK  9 active torsions:
REMARK  status: ('A' for Active; 'I' for Inactive)
REMARK    1  A    between atoms: C_2  and  C_3
REMARK    2  A    between atoms: C_2  and  C_8
REMARK    3  A    between atoms: C_3  and  S_4
REMARK    4  A    between atoms: S_4  and  C_5
REMARK    5  A    between atoms: C_14  and  C_15
REMARK    6  A    between atoms: N_17  and  CA_18
REMARK    7  A    between atoms: CA_18  and  CB_19
REMARK    8  A    between atoms: CA_18  and  C_26
REMARK    9  A    between atoms: CB_19  and  CG_20
REMARK                            x       y       z     vdW  Elec       q    Type
REMARK                         _______ _______ _______ _____ _____    ______ ____
ROOT
ATOM      1  C   UNK A   0      45.341  79.349  39.637  0.00  0.00    +0.226 C 
ATOM      2  O   UNK A   0      45.977  78.266  39.360  0.00  0.00    -0.275 OA
ATOM      3  N   UNK A   0      46.029  80.572  39.752  0.00  0.00    -0.273 N 
ATOM      4  C   UNK A   0      45.458  81.856  39.988  0.00  0.00    +0.094 C 
ATOM      5  C   UNK A   0      46.373  82.781  39.180  0.00  0.00    +0.024 C 
ATOM      6  C   UNK A   0      47.533  81.950  38.729  0.00  0.00    +0.031 C 
ATOM      7  C   UNK A   0      47.448  80.748  39.647  0.00  0.00    +0.154 C 
ENDROOT
BRANCH   7   8
ATOM      8  C   UNK A   0      48.065  81.102  40.963  0.00  0.00    +0.260 C 
ATOM      9  O   UNK A   0      47.407  81.550  41.937  0.00  0.00    -0.272 OA
ATOM     10  N   PHE A   1      49.467  80.947  41.189  0.00  0.00    -0.194 NA
BRANCH  10  11
ATOM     11  CA  PHE A   1      50.149  81.605  42.303  0.00  0.00    +0.202 C 
BRANCH  11  12
ATOM     12  C   PHE A   1      51.531  81.152  42.439  0.00  0.00    +0.385 C 
ATOM     13  O   PHE A   1      52.088  80.919  43.519  0.00  0.00    -0.244 OA
ATOM     14  OXT PHE A   1      52.277  80.970  41.258  0.00  0.00    -0.244 OA
ENDBRANCH  11  12
BRANCH  11  15
ATOM     15  CB  PHE A   1      50.110  83.082  41.976  0.00  0.00    +0.060 C 
BRANCH  15  16
ATOM     16  CG  PHE A   1      49.189  83.864  42.797  0.00  0.00    -0.020 A 
ATOM     17  CD1 PHE A   1      47.935  84.143  42.258  0.00  0.00    -0.004 A 
ATOM     18  CE1 PHE A   1      47.024  84.880  42.982  0.00  0.00    -0.000 A 
ATOM     19  CZ  PHE A   1      47.352  85.343  44.242  0.00  0.00    -0.000 A 
ATOM     20  CE2 PHE A   1      48.591  85.070  44.779  0.00  0.00    -0.000 A 
ATOM     21  CD2 PHE A   1      49.497  84.335  44.054  0.00  0.00    -0.004 A 
ENDBRANCH  15  16
ENDBRANCH  11  15
ENDBRANCH  10  11
ENDBRANCH   7   8
BRANCH   1  23
ATOM     22  C   UNK A   0      43.212  79.033  38.449  0.00  0.00    +0.010 C 
ATOM     23  C   UNK A   0      43.880  79.200  39.819  0.00  0.00    +0.088 C 
BRANCH  23  24
ATOM     24  C   UNK A   0      43.628  77.957  40.640  0.00  0.00    +0.074 C 
BRANCH  24  25
ATOM     25  S   UNK A   0      44.427  78.161  42.233  0.00  0.00    -0.077 S 
BRANCH  25  26
ATOM     26  C   UNK A   0      44.350  76.710  43.240  0.00  0.00    +0.199 C 
ATOM     27  O   UNK A   0      43.659  75.781  42.859  0.00  0.00    -0.285 OA
ATOM     28  C   UNK A   0      45.075  76.553  44.524  0.00  0.00    +0.085 C 
ENDBRANCH  25  26
ENDBRANCH  24  25
ENDBRANCH  23  24
ENDBRANCH   1  23
TORSDOF 9
