REMARK  Name = Alatrofloxacin_mesylate
REMARK  7 active torsions:
REMARK  status: ('A' for Active; 'I' for Inactive)
REMARK    1  A    between atoms: C_2  and  C_3
REMARK    2  A    between atoms: N_5  and  C_6
REMARK    3  A    between atoms: C_6  and  C_8
REMARK    4  A    between atoms: N_10  and  C_11
REMARK    5  A    between atoms: N_15  and  C_17
REMARK    6  A    between atoms: C_23  and  C_36
REMARK    7  A    between atoms: N_25  and  C_28
REMARK                            x       y       z     vdW  Elec       q    Type
REMARK                         _______ _______ _______ _____ _____    ______ ____
ROOT
ATOM      1  C   UNL     1      42.043  77.790  38.464  0.00  0.00    +0.161 A 
ATOM      2  C   UNL     1      42.068  78.832  37.569  0.00  0.00    +0.172 A 
ATOM      3  C   UNL     1      43.012  79.855  37.672  0.00  0.00    +0.039 A 
ATOM      4  C   UNL     1      43.941  79.828  38.690  0.00  0.00    +0.076 A 
ATOM      5  C   UNL     1      44.878  80.826  38.808  0.00  0.00    +0.206 A 
ATOM      6  O   UNL     1      44.939  81.799  38.014  0.00  0.00    -0.286 OA
ATOM      7  C   UNL     1      45.795  80.756  39.853  0.00  0.00    +0.136 A 
ATOM      8  C   UNL     1      45.694  79.677  40.698  0.00  0.00    +0.091 A 
ATOM      9  N   UNL     1      44.787  78.693  40.597  0.00  0.00    -0.288 N 
ATOM     10  C   UNL     1      43.902  78.774  39.579  0.00  0.00    +0.152 A 
ATOM     11  N   UNL     1      42.982  77.828  39.433  0.00  0.00    -0.211 NA
ATOM     12  F   UNL     1      41.177  78.893  36.567  0.00  0.00    -0.201 F 
ENDROOT
BRANCH   9  13
ATOM     13  C   UNL     1      44.741  77.601  41.508  0.00  0.00    +0.093 A 
ATOM     14  C   UNL     1      45.315  76.375  41.237  0.00  0.00    +0.158 A 
ATOM     15  C   UNL     1      45.260  75.326  42.138  0.00  0.00    +0.061 A 
ATOM     16  C   UNL     1      44.621  75.471  43.352  0.00  0.00    +0.142 A 
ATOM     17  C   UNL     1      44.043  76.693  43.635  0.00  0.00    +0.031 A 
ATOM     18  C   UNL     1      44.102  77.750  42.720  0.00  0.00    +0.022 A 
ATOM     19  F   UNL     1      44.568  74.437  44.238  0.00  0.00    -0.204 F 
ATOM     20  F   UNL     1      45.942  76.241  40.037  0.00  0.00    -0.203 F 
ENDBRANCH   9  13
BRANCH   1  25
ATOM     21  C   UNL     1      39.362  74.077  38.308  0.00  0.00    +0.099 C 
ATOM     22  C   UNL     1      40.157  74.886  37.353  0.00  0.00    +0.043 C 
ATOM     23  C   UNL     1      40.782  74.437  38.604  0.00  0.00    +0.043 C 
ATOM     24  C   UNL     1      41.077  75.658  39.422  0.00  0.00    +0.094 C 
ATOM     25  N   UNL     1      41.122  76.712  38.428  0.00  0.00    -0.291 N 
ATOM     26  C   UNL     1      40.076  76.399  37.486  0.00  0.00    +0.094 C 
BRANCH  21  29
ATOM     27  C   UNL     1      37.730  72.174  38.373  0.00  0.00    +0.261 C 
ATOM     28  O   UNL     1      36.940  72.889  39.009  0.00  0.00    -0.271 OA
ATOM     29  N   UNL     1      38.984  72.719  37.984  0.00  0.00    -0.206 NA
BRANCH  27  30
ATOM     30  C   UNL     1      37.333  70.780  38.047  0.00  0.00    +0.173 C 
ATOM     31  C   UNL     1      38.330  69.757  38.540  0.00  0.00    +0.033 C 
BRANCH  30  34
ATOM     32  C   UNL     1      34.924  70.162  37.668  0.00  0.00    +0.259 C 
ATOM     33  O   UNL     1      35.156  69.949  36.456  0.00  0.00    -0.272 OA
ATOM     34  N   UNL     1      35.991  70.493  38.553  0.00  0.00    -0.197 NA
BRANCH  32  36
ATOM     35  C   UNL     1      32.808  71.336  37.762  0.00  0.00    +0.030 C 
ATOM     36  C   UNL     1      33.532  70.067  38.174  0.00  0.00    +0.169 C 
ATOM     37  N   UNL     1      32.882  68.896  37.621  0.00  0.00    -0.123 NA
ENDBRANCH  32  36
ENDBRANCH  30  34
ENDBRANCH  27  30
ENDBRANCH  21  29
ENDBRANCH   1  25
BRANCH   7  38
ATOM     38  C   UNL     1      46.794  81.796  40.007  0.00  0.00    +0.392 C 
ATOM     39  O   UNL     1      46.883  82.693  39.143  0.00  0.00    -0.240 OA
ATOM     40  O   UNL     1      47.648  81.813  41.088  0.00  0.00    -0.240 OA
ENDBRANCH   7  38
TORSDOF 7
REMARK  Name = Alatrofloxacin_mesylate
REMARK  7 active torsions:
REMARK  status: ('A' for Active; 'I' for Inactive)
REMARK    1  A    between atoms: C_2  and  C_3
REMARK    2  A    between atoms: N_5  and  C_6
REMARK    3  A    between atoms: C_6  and  C_8
REMARK    4  A    between atoms: N_10  and  C_11
REMARK    5  A    between atoms: N_15  and  C_17
REMARK    6  A    between atoms: C_23  and  C_36
REMARK    7  A    between atoms: N_25  and  C_28
REMARK                            x       y       z     vdW  Elec       q    Type
REMARK                         _______ _______ _______ _____ _____    ______ ____
ROOT
ATOM      1  C   UNL     1      41.611  75.851  39.470  0.00  0.00    +0.213 C 
ATOM      2  S   UNL     1      40.307  74.659  39.351  0.00  0.00    +0.123 S 
ATOM      3  O   UNL     1      39.738  74.347  40.696  0.00  0.00    -0.144 OA
ATOM      4  O   UNL     1      40.877  73.420  38.701  0.00  0.00    -0.144 OA
ATOM      5  O   UNL     1      39.096  75.251  38.366  0.00  0.00    -0.047 OA
ENDROOT
TORSDOF 0
