REMARK  Name = Albendazole
REMARK  4 active torsions:
REMARK  status: ('A' for Active; 'I' for Inactive)
REMARK    1  A    between atoms: C_2  and  C_3
REMARK    2  A    between atoms: C_3  and  S_4
REMARK    3  A    between atoms: S_4  and  C_5
REMARK    4  A    between atoms: C_15  and  O_17
REMARK                            x       y       z     vdW  Elec       q    Type
REMARK                         _______ _______ _______ _____ _____    ______ ____
ROOT
ATOM      1  C   UNL     1      47.817  81.943  41.341  0.00  0.00    +0.027 A 
ATOM      2  C   UNL     1      46.898  80.895  41.206  0.00  0.00    +0.027 A 
ATOM      3  C   UNL     1      46.026  80.845  40.142  0.00  0.00    +0.102 A 
ATOM      4  C   UNL     1      46.042  81.835  39.181  0.00  0.00    +0.102 A 
ATOM      5  C   UNL     1      46.937  82.887  39.281  0.00  0.00    +0.021 A 
ATOM      6  C   UNL     1      47.810  82.904  40.380  0.00  0.00    +0.008 A 
ATOM      7  N   UNL     1      45.113  81.564  38.262  0.00  0.00    -0.211 NA
ATOM      8  C   UNL     1      44.497  80.425  38.605  0.00  0.00    +0.246 A 
ATOM      9  N   UNL     1      45.056  79.996  39.744  0.00  0.00    -0.211 NA
ATOM     10  N   UNL     1      43.446  79.799  37.883  0.00  0.00    -0.106 NA
ATOM     11  C   UNL     1      42.796  78.624  38.349  0.00  0.00    +0.428 C 
ATOM     12  O   UNL     1      43.272  78.016  39.358  0.00  0.00    -0.224 OA
ENDROOT
BRANCH  11  13
ATOM     13  O   UNL     1      41.666  78.134  37.729  0.00  0.00    -0.429 OA
ATOM     14  C   UNL     1      41.158  76.851  38.024  0.00  0.00    +0.257 C 
ENDBRANCH  11  13
BRANCH   1  15
ATOM     15  S   UNL     1      48.868  81.989  42.739  0.00  0.00    -0.114 S 
BRANCH  15  16
ATOM     16  C   UNL     1      49.965  83.364  42.902  0.00  0.00    +0.062 C 
BRANCH  16  18
ATOM     17  C   UNL     1      48.229  85.055  43.691  0.00  0.00    +0.001 C 
ATOM     18  C   UNL     1      49.376  84.726  42.822  0.00  0.00    +0.012 C 
ENDBRANCH  16  18
ENDBRANCH  15  16
ENDBRANCH   1  15
TORSDOF 4
