REMARK  Name = Alcaftadine
REMARK  1 active torsions:
REMARK  status: ('A' for Active; 'I' for Inactive)
REMARK    1  A    between atoms: C_19  and  C_20
REMARK                            x       y       z     vdW  Elec       q    Type
REMARK                         _______ _______ _______ _____ _____    ______ ____
ROOT
ATOM      1  C   UNL     1      39.250  78.735  37.585  0.00  0.00    +0.090 C 
ATOM      2  N   UNL     1      40.377  77.868  37.746  0.00  0.00    -0.271 NA
ATOM      3  C   UNL     1      41.465  78.147  36.876  0.00  0.00    +0.077 C 
ATOM      4  C   UNL     1      42.594  78.879  37.623  0.00  0.00    +0.039 C 
ATOM      5  C   UNL     1      43.085  78.009  38.767  0.00  0.00    -0.039 C 
ATOM      6  C   UNL     1      44.152  78.333  39.403  0.00  0.00    +0.026 C 
ATOM      7  C   UNL     1      44.490  77.582  40.625  0.00  0.00    -0.002 A 
ATOM      8  C   UNL     1      44.258  76.240  40.461  0.00  0.00    -0.000 A 
ATOM      9  C   UNL     1      44.510  75.409  41.522  0.00  0.00    -0.000 A 
ATOM     10  C   UNL     1      44.986  75.926  42.718  0.00  0.00    -0.000 A 
ATOM     11  C   UNL     1      45.212  77.285  42.846  0.00  0.00    -0.004 A 
ATOM     12  C   UNL     1      44.970  78.171  41.789  0.00  0.00    -0.020 A 
ATOM     13  C   UNL     1      45.359  79.530  42.161  0.00  0.00    +0.051 C 
ATOM     14  C   UNL     1      45.103  80.639  41.233  0.00  0.00    +0.112 C 
ATOM     15  N   UNL     1      45.334  80.502  39.841  0.00  0.00    -0.308 N 
ATOM     16  C   UNL     1      44.932  79.530  38.983  0.00  0.00    +0.143 A 
ATOM     17  N   UNL     1      45.289  79.746  37.741  0.00  0.00    -0.225 NA
ATOM     18  C   UNL     1      45.968  80.911  37.720  0.00  0.00    +0.121 A 
ATOM     19  C   UNL     1      45.997  81.382  39.027  0.00  0.00    +0.123 A 
ATOM     20  C   UNL     1      42.136  76.957  39.129  0.00  0.00    +0.039 C 
ATOM     21  C   UNL     1      40.735  77.678  39.112  0.00  0.00    +0.077 C 
ENDROOT
BRANCH  19  22
ATOM     22  C   UNL     1      46.620  82.597  39.462  0.00  0.00    +0.253 C 
ATOM     23  O   UNL     1      47.416  82.558  40.455  0.00  0.00    -0.281 OA
ENDBRANCH  19  22
TORSDOF 1
