REMARK  Name = Alclofenac
REMARK  5 active torsions:
REMARK  status: ('A' for Active; 'I' for Inactive)
REMARK    1  A    between atoms: C_2  and  C_3
REMARK    2  A    between atoms: C_3  and  O_4
REMARK    3  A    between atoms: O_4  and  C_5
REMARK    4  A    between atoms: C_8  and  C_11
REMARK    5  A    between atoms: C_11  and  C_12
REMARK                            x       y       z     vdW  Elec       q    Type
REMARK                         _______ _______ _______ _____ _____    ______ ____
ROOT
ATOM      1  C   UNL     1      49.249  83.275  42.133  0.00  0.00    +0.149 A 
ATOM      2  C   UNL     1      47.920  83.405  42.557  0.00  0.00    +0.091 A 
ATOM      3  C   UNL     1      46.956  82.625  41.999  0.00  0.00    +0.011 A 
ATOM      4  C   UNL     1      47.201  81.689  41.022  0.00  0.00    -0.010 A 
ATOM      5  C   UNL     1      48.529  81.555  40.597  0.00  0.00    -0.001 A 
ATOM      6  C   UNL     1      49.536  82.334  41.143  0.00  0.00    +0.037 A 
ATOM      7 CL   UNL     1      47.623  84.636  43.795  0.00  0.00    -0.079 Cl
ENDROOT
BRANCH   1   8
ATOM      8  O   UNL     1      50.200  84.065  42.697  0.00  0.00    -0.470 OA
BRANCH   8   9
ATOM      9  C   UNL     1      51.158  83.672  43.629  0.00  0.00    +0.232 C 
BRANCH   9  11
ATOM     10  C   UNL     1      51.817  81.296  43.750  0.00  0.00    -0.001 C 
ATOM     11  C   UNL     1      51.891  82.452  43.109  0.00  0.00    +0.021 C 
ENDBRANCH   9  11
ENDBRANCH   8   9
ENDBRANCH   1   8
BRANCH   4  12
ATOM     12  C   UNL     1      46.134  80.853  40.428  0.00  0.00    +0.140 C 
BRANCH  12  13
ATOM     13  C   UNL     1      45.605  81.451  39.199  0.00  0.00    +0.369 C 
ATOM     14  O   UNL     1      44.571  80.942  38.693  0.00  0.00    -0.245 OA
ATOM     15  O   UNL     1      46.222  82.561  38.577  0.00  0.00    -0.245 OA
ENDBRANCH  12  13
ENDBRANCH   4  12
TORSDOF 5
