REMARK  Name = Alclometasone
REMARK  2 active torsions:
REMARK  status: ('A' for Active; 'I' for Inactive)
REMARK    1  A    between atoms: C_19  and  C_20
REMARK    2  A    between atoms: C_20  and  C_22
REMARK                            x       y       z     vdW  Elec       q    Type
REMARK                         _______ _______ _______ _____ _____    ______ ____
ROOT
ATOM      1  C   UNL     1      48.503  85.174  43.304  0.00  0.00    +0.003 C 
ATOM      2  C   UNL     1      48.911  84.074  42.339  0.00  0.00    +0.035 C 
ATOM      3  C   UNL     1      47.782  83.727  41.395  0.00  0.00    +0.003 C 
ATOM      4  C   UNL     1      48.011  82.298  41.144  0.00  0.00    +0.004 C 
ATOM      5  C   UNL     1      46.864  81.522  40.579  0.00  0.00    +0.019 C 
ATOM      6  C   UNL     1      46.366  82.098  39.271  0.00  0.00    +0.084 C 
ATOM      7  C   UNL     1      45.170  81.276  38.818  0.00  0.00    +0.039 C 
ATOM      8  C   UNL     1      45.135  79.953  39.513  0.00  0.00    -0.037 C 
ATOM      9  C   UNL     1      43.994  79.475  39.990  0.00  0.00    +0.034 C 
ATOM     10  C   UNL     1      43.966  78.200  40.659  0.00  0.00    +0.195 C 
ATOM     11  O   UNL     1      42.903  77.708  41.127  0.00  0.00    -0.287 OA
ATOM     12  C   UNL     1      45.194  77.449  40.805  0.00  0.00    +0.038 C 
ATOM     13  C   UNL     1      46.317  77.941  40.325  0.00  0.00    -0.020 C 
ATOM     14  C   UNL     1      46.426  79.239  39.628  0.00  0.00    +0.036 C 
ATOM     15  C   UNL     1      47.427  80.143  40.293  0.00  0.00    +0.039 C 
ATOM     16  C   UNL     1      47.978  79.482  41.525  0.00  0.00    +0.153 C 
ATOM     17  C   UNL     1      48.837  80.380  42.360  0.00  0.00    +0.036 C 
ATOM     18  C   UNL     1      48.291  81.749  42.526  0.00  0.00    +0.035 C 
ATOM     19  C   UNL     1      49.261  82.780  43.037  0.00  0.00    +0.180 C 
ATOM     20  O   UNL     1      49.027  82.959  44.398  0.00  0.00    -0.218 OA
ATOM     21  C   UNL     1      47.077  81.765  43.419  0.00  0.00    +0.003 C 
ATOM     22  O   UNL     1      47.001  78.918  42.332  0.00  0.00    -0.223 OA
ATOM     23  C   UNL     1      46.858  78.909  38.193  0.00  0.00    +0.009 C 
ATOM     24 CL   UNL     1      47.663  82.113  38.075  0.00  0.00    -0.115 Cl
ENDROOT
BRANCH  19  25
ATOM     25  C   UNL     1      50.683  82.414  42.851  0.00  0.00    +0.211 C 
ATOM     26  O   UNL     1      51.346  82.115  43.854  0.00  0.00    -0.291 OA
BRANCH  25  27
ATOM     27  C   UNL     1      51.346  82.391  41.521  0.00  0.00    +0.248 C 
ATOM     28  O   UNL     1      52.699  82.087  41.606  0.00  0.00    -0.212 OA
ENDBRANCH  25  27
ENDBRANCH  19  25
TORSDOF 2
