REMARK  Name = ALCURONIUM
REMARK  6 active torsions:
REMARK  status: ('A' for Active; 'I' for Inactive)
REMARK    1  A    between atoms: C_2  and  C_3
REMARK    2  A    between atoms: C_3  and  N_4
REMARK    3  A    between atoms: C_12  and  C_13
REMARK    4  A    between atoms: N_36  and  C_42
REMARK    5  A    between atoms: C_39  and  C_40
REMARK    6  A    between atoms: C_42  and  C_43
REMARK                            x       y       z     vdW  Elec       q    Type
REMARK                         _______ _______ _______ _____ _____    ______ ____
ROOT
ATOM      1  N   UNL     1      51.429  81.506  42.700  0.00  0.00    +0.397 N 
ATOM      2  C   UNL     1      51.450  82.372  41.532  0.00  0.00    -0.072 C 
ATOM      3  C   UNL     1      50.034  82.699  41.206  0.00  0.00    -0.018 C 
ATOM      4  C   UNL     1      49.183  82.139  42.334  0.00  0.00    +0.022 C 
ATOM      5  C   UNL     1      50.210  81.849  43.395  0.00  0.00    -0.047 C 
ATOM      6  C   UNL     1      49.757  80.876  44.417  0.00  0.00    -0.012 C 
ATOM      7  C   UNL     1      49.498  79.545  43.725  0.00  0.00    +0.035 C 
ATOM      8  C   UNL     1      50.765  79.176  43.069  0.00  0.00    -0.063 C 
ATOM      9  C   UNL     1      51.313  77.998  43.223  0.00  0.00    -0.001 C 
ATOM     10  C   UNL     1      51.476  80.161  42.204  0.00  0.00    -0.049 C 
ATOM     11  C   UNL     1      48.414  79.783  42.739  0.00  0.00    -0.008 C 
ATOM     12  C   UNL     1      47.631  78.724  42.888  0.00  0.00    +0.059 C 
ATOM     13  N   UNL     1      46.428  78.297  42.277  0.00  0.00    -0.284 N 
ATOM     14  C   UNL     1      45.764  78.513  41.015  0.00  0.00    +0.099 C 
ATOM     15  C   UNL     1      45.332  79.894  40.809  0.00  0.00    -0.008 C 
ATOM     16  C   UNL     1      45.861  81.050  41.115  0.00  0.00    +0.059 C 
ATOM     17  N   UNL     1      47.049  81.533  41.764  0.00  0.00    -0.284 N 
ATOM     18  C   UNL     1      48.395  80.969  41.899  0.00  0.00    +0.099 C 
ATOM     19  C   UNL     1      46.993  82.783  42.430  0.00  0.00    +0.048 A 
ATOM     20  C   UNL     1      45.901  83.593  42.739  0.00  0.00    +0.015 A 
ATOM     21  C   UNL     1      46.108  84.798  43.420  0.00  0.00    +0.001 A 
ATOM     22  C   UNL     1      47.365  85.200  43.791  0.00  0.00    -0.000 A 
ATOM     23  C   UNL     1      48.442  84.400  43.485  0.00  0.00    -0.003 A 
ATOM     24  C   UNL     1      48.244  83.191  42.803  0.00  0.00    -0.009 A 
ATOM     25  C   UNL     1      44.049  80.281  40.117  0.00  0.00    +0.035 C 
ATOM     26  C   UNL     1      43.005  79.426  40.868  0.00  0.00    -0.012 C 
ATOM     27  C   UNL     1      43.329  78.007  40.591  0.00  0.00    -0.047 C 
ATOM     28  C   UNL     1      44.655  77.511  41.028  0.00  0.00    +0.022 C 
ATOM     29  C   UNL     1      44.886  76.361  40.058  0.00  0.00    -0.018 C 
ATOM     30  C   UNL     1      43.659  76.298  39.174  0.00  0.00    -0.072 C 
ATOM     31  N   UNL     1      43.183  77.650  39.189  0.00  0.00    +0.397 N 
ATOM     32  C   UNL     1      43.994  78.446  38.324  0.00  0.00    -0.049 C 
ATOM     33  C   UNL     1      44.026  79.906  38.710  0.00  0.00    -0.063 C 
ATOM     34  C   UNL     1      44.032  80.768  37.721  0.00  0.00    -0.001 C 
ATOM     35  C   UNL     1      44.585  76.927  42.389  0.00  0.00    -0.009 A 
ATOM     36  C   UNL     1      43.670  76.064  42.912  0.00  0.00    -0.003 A 
ATOM     37  C   UNL     1      43.818  75.659  44.222  0.00  0.00    -0.000 A 
ATOM     38  C   UNL     1      44.868  76.115  44.992  0.00  0.00    +0.001 A 
ATOM     39  C   UNL     1      45.763  76.984  44.419  0.00  0.00    +0.015 A 
ATOM     40  C   UNL     1      45.645  77.411  43.108  0.00  0.00    +0.048 A 
ENDROOT
BRANCH   9  41
ATOM     41  C   UNL     1      52.211  77.334  42.264  0.00  0.00    +0.208 C 
ATOM     42  O   UNL     1      51.735  77.566  40.947  0.00  0.00    -0.215 OA
ENDBRANCH   9  41
BRANCH  34  43
ATOM     43  C   UNL     1      45.255  81.263  37.077  0.00  0.00    +0.208 C 
ATOM     44  O   UNL     1      45.135  82.648  36.801  0.00  0.00    -0.215 OA
ENDBRANCH  34  43
BRANCH   1  45
ATOM     45  C   UNL     1      52.576  81.698  43.562  0.00  0.00    -0.045 C 
BRANCH  45  47
ATOM     46  C   UNL     1      52.249  84.136  43.606  0.00  0.00    -0.007 C 
ATOM     47  C   UNL     1      52.598  83.019  44.213  0.00  0.00    -0.049 C 
ENDBRANCH  45  47
ENDBRANCH   1  45
BRANCH  31  48
ATOM     48  C   UNL     1      41.789  77.780  38.857  0.00  0.00    -0.045 C 
BRANCH  48  49
ATOM     49  C   UNL     1      41.009  76.546  39.065  0.00  0.00    -0.049 C 
ATOM     50  C   UNL     1      41.318  75.382  38.518  0.00  0.00    -0.007 C 
ENDBRANCH  48  49
ENDBRANCH  31  48
TORSDOF 6
