REMARK  Name = Aldosterone
REMARK  3 active torsions:
REMARK  status: ('A' for Active; 'I' for Inactive)
REMARK    1  A    between atoms: C_15  and  C_24
REMARK    2  A    between atoms: C_19  and  C_20
REMARK    3  A    between atoms: C_20  and  C_22
REMARK                            x       y       z     vdW  Elec       q    Type
REMARK                         _______ _______ _______ _____ _____    ______ ____
ROOT
ATOM      1  C   UNL     1      44.824  78.622  38.118  0.00  0.00    +0.004 C 
ATOM      2  C   UNL     1      44.278  79.235  39.419  0.00  0.00    +0.018 C 
ATOM      3  C   UNL     1      42.893  79.762  39.010  0.00  0.00    +0.012 C 
ATOM      4  C   UNL     1      42.054  78.692  38.370  0.00  0.00    +0.069 C 
ATOM      5  C   UNL     1      42.117  77.404  39.102  0.00  0.00    +0.173 C 
ATOM      6  O   UNL     1      41.401  76.467  38.730  0.00  0.00    -0.291 OA
ATOM      7  C   UNL     1      43.041  77.338  40.231  0.00  0.00    +0.029 C 
ATOM      8  C   UNL     1      44.045  78.165  40.407  0.00  0.00    -0.042 C 
ATOM      9  C   UNL     1      44.902  77.977  41.608  0.00  0.00    +0.022 C 
ATOM     10  C   UNL     1      45.057  79.400  42.172  0.00  0.00    +0.004 C 
ATOM     11  C   UNL     1      45.910  80.117  41.160  0.00  0.00    +0.003 C 
ATOM     12  C   UNL     1      45.148  80.337  39.873  0.00  0.00    +0.034 C 
ATOM     13  C   UNL     1      46.129  80.854  38.862  0.00  0.00    +0.153 C 
ATOM     14  C   UNL     1      47.512  81.025  39.409  0.00  0.00    +0.041 C 
ATOM     15  C   UNL     1      47.565  81.837  40.676  0.00  0.00    +0.067 C 
ATOM     16  C   UNL     1      46.395  81.449  41.608  0.00  0.00    +0.008 C 
ATOM     17  C   UNL     1      46.949  81.504  42.992  0.00  0.00    +0.001 C 
ATOM     18  C   UNL     1      48.407  81.979  42.843  0.00  0.00    +0.008 C 
ATOM     19  C   UNL     1      48.709  81.348  41.494  0.00  0.00    +0.067 C 
ATOM     20  O   UNL     1      45.752  82.131  38.375  0.00  0.00    -0.223 OA
ENDROOT
BRANCH  19  21
ATOM     21  C   UNL     1      50.053  81.560  41.012  0.00  0.00    +0.184 C 
ATOM     22  O   UNL     1      50.890  80.676  41.331  0.00  0.00    -0.293 OA
BRANCH  21  23
ATOM     23  C   UNL     1      50.566  82.676  40.199  0.00  0.00    +0.246 C 
ATOM     24  O   UNL     1      51.524  83.440  40.821  0.00  0.00    -0.212 OA
ENDBRANCH  21  23
ENDBRANCH  19  21
BRANCH  15  25
ATOM     25  C   UNL     1      47.461  83.273  40.446  0.00  0.00    +0.207 C 
ATOM     26  O   UNL     1      47.536  84.103  41.336  0.00  0.00    -0.288 OA
ENDBRANCH  15  25
TORSDOF 3
