REMARK  Name = Alectinib
REMARK  4 active torsions:
REMARK  status: ('A' for Active; 'I' for Inactive)
REMARK    1  A    between atoms: C_2  and  C_3
REMARK    2  A    between atoms: C_8  and  N_9
REMARK    3  A    between atoms: C_12  and  N_15
REMARK    4  A    between atoms: C_30  and  C_33
REMARK                            x       y       z     vdW  Elec       q    Type
REMARK                         _______ _______ _______ _____ _____    ______ ____
ROOT
ATOM      1  C   UNL     1      41.497  78.663  37.864  0.00  0.00    -0.009 A 
ATOM      2  C   UNL     1      42.467  79.635  38.002  0.00  0.00    -0.000 A 
ATOM      3  C   UNL     1      43.540  79.544  38.885  0.00  0.00    +0.035 A 
ATOM      4  C   UNL     1      43.680  78.440  39.688  0.00  0.00    -0.013 A 
ATOM      5  C   UNL     1      42.707  77.468  39.546  0.00  0.00    +0.010 A 
ATOM      6  C   UNL     1      41.634  77.556  38.663  0.00  0.00    +0.043 A 
ATOM      7  C   UNL     1      44.765  78.258  40.686  0.00  0.00    +0.054 C 
ATOM      8  C   UNL     1      45.775  79.336  40.624  0.00  0.00    +0.065 A 
ATOM      9  C   UNL     1      45.668  80.454  39.832  0.00  0.00    +0.054 A 
ATOM     10  C   UNL     1      44.544  80.603  38.931  0.00  0.00    +0.196 C 
ATOM     11  O   UNL     1      44.398  81.596  38.193  0.00  0.00    -0.287 OA
ATOM     12  C   UNL     1      46.762  81.295  40.022  0.00  0.00    +0.022 A 
ATOM     13  C   UNL     1      47.539  80.649  40.954  0.00  0.00    +0.082 A 
ATOM     14  N   UNL     1      46.953  79.500  41.302  0.00  0.00    -0.249 NA
ATOM     15  C   UNL     1      48.707  81.291  41.309  0.00  0.00    +0.029 A 
ATOM     16  C   UNL     1      49.110  82.495  40.795  0.00  0.00    +0.070 A 
ATOM     17  C   UNL     1      48.303  83.107  39.867  0.00  0.00    +0.010 A 
ATOM     18  C   UNL     1      47.114  82.502  39.474  0.00  0.00    +0.002 A 
ATOM     19  C   UNL     1      45.388  76.902  40.605  0.00  0.00    +0.010 C 
ATOM     20  C   UNL     1      44.135  78.378  42.100  0.00  0.00    +0.010 C 
ENDROOT
BRANCH   6  21
ATOM     21  N   UNL     1      40.684  76.492  38.600  0.00  0.00    -0.308 N 
ATOM     22  C   UNL     1      40.158  75.734  39.683  0.00  0.00    +0.092 C 
ATOM     23  C   UNL     1      40.381  74.275  39.535  0.00  0.00    +0.037 C 
ATOM     24  C   UNL     1      40.108  73.833  38.119  0.00  0.00    +0.061 C 
ATOM     25  C   UNL     1      39.387  74.866  37.312  0.00  0.00    +0.037 C 
ATOM     26  C   UNL     1      40.170  76.175  37.280  0.00  0.00    +0.092 C 
BRANCH  24  27
ATOM     27  N   UNL     1      39.422  72.580  38.016  0.00  0.00    -0.270 NA
ATOM     28  C   UNL     1      38.371  72.424  38.991  0.00  0.00    +0.105 C 
ATOM     29  C   UNL     1      37.957  70.963  39.003  0.00  0.00    +0.159 C 
ATOM     30  O   UNL     1      37.852  70.470  37.730  0.00  0.00    -0.351 OA
ATOM     31  C   UNL     1      37.706  71.471  36.777  0.00  0.00    +0.159 C 
ATOM     32  C   UNL     1      38.990  72.268  36.674  0.00  0.00    +0.105 C 
ENDBRANCH  24  27
ENDBRANCH   6  21
BRANCH   1  34
ATOM     33  C   UNL     1      39.376  79.874  37.419  0.00  0.00    +0.005 C 
ATOM     34  C   UNL     1      40.385  78.861  36.892  0.00  0.00    +0.028 C 
ENDBRANCH   1  34
BRANCH  16  35
ATOM     35  C   UNL     1      50.377  83.112  41.221  0.00  0.00    +0.100 C 
ATOM     36  N   UNL     1      51.336  83.597  41.558  0.00  0.00    -0.191 NA
ENDBRANCH  16  35
TORSDOF 4
