REMARK  Name = Alendronate
REMARK  5 active torsions:
REMARK  status: ('A' for Active; 'I' for Inactive)
REMARK    1  A    between atoms: C_1  and  C_2
REMARK    2  A    between atoms: C_1  and  C_13
REMARK    3  A    between atoms: C_2  and  C_3
REMARK    4  A    between atoms: C_3  and  P_5
REMARK    5  A    between atoms: C_3  and  P_9
REMARK                            x       y       z     vdW  Elec       q    Type
REMARK                         _______ _______ _______ _____ _____    ______ ____
ROOT
ATOM      1  C   UNL     1      47.032  80.723  40.008  0.00  0.00    +0.318 C 
ATOM      2  O   UNL     1      47.934  79.977  39.261  0.00  0.00    -0.200 OA
ENDROOT
BRANCH   1   3
ATOM      3  P   UNL     1      45.703  81.361  38.975  0.00  0.00    +0.433 P 
ATOM      4  O   UNL     1      44.541  81.753  39.886  0.00  0.00    -0.250 OA
ATOM      5  O   UNL     1      45.132  80.127  37.943  0.00  0.00    -0.136 OA
ATOM      6  O   UNL     1      46.229  82.674  38.066  0.00  0.00    -0.136 OA
ENDBRANCH   1   3
BRANCH   1   7
ATOM      7  P   UNL     1      47.954  82.059  40.817  0.00  0.00    +0.433 P 
ATOM      8  O   UNL     1      49.266  81.498  41.279  0.00  0.00    -0.250 OA
ATOM      9  O   UNL     1      47.048  82.593  42.127  0.00  0.00    -0.136 OA
ATOM     10  O   UNL     1      48.194  83.340  39.757  0.00  0.00    -0.136 OA
ENDBRANCH   1   7
BRANCH   1  11
ATOM     11  C   UNL     1      46.462  79.825  41.084  0.00  0.00    +0.057 C 
BRANCH  11  12
ATOM     12  C   UNL     1      45.994  78.534  40.451  0.00  0.00    +0.024 C 
BRANCH  12  13
ATOM     13  C   UNL     1      45.448  77.568  41.456  0.00  0.00    +0.109 C 
ATOM     14  N   UNL     1      44.980  76.385  40.791  0.00  0.00    -0.131 NA
ENDBRANCH  12  13
ENDBRANCH  11  12
ENDBRANCH   1  11
TORSDOF 5
