REMARK  Name = Alfentanil
REMARK  9 active torsions:
REMARK  status: ('A' for Active; 'I' for Inactive)
REMARK    1  A    between atoms: C_2  and  C_3
REMARK    2  A    between atoms: N_5  and  C_6
REMARK    3  A    between atoms: N_5  and  C_12
REMARK    4  A    between atoms: C_12  and  C_28
REMARK    5  A    between atoms: N_15  and  C_18
REMARK    6  A    between atoms: C_18  and  C_19
REMARK    7  A    between atoms: C_19  and  N_20
REMARK    8  A    between atoms: N_23  and  C_26
REMARK    9  A    between atoms: C_28  and  O_29
REMARK                            x       y       z     vdW  Elec       q    Type
REMARK                         _______ _______ _______ _____ _____    ______ ____
ROOT
ATOM      1  C   UNL     1      49.066  81.827  41.577  0.00  0.00    +0.094 C 
ATOM      2  C   UNL     1      48.368  82.733  40.656  0.00  0.00    +0.038 C 
ATOM      3  C   UNL     1      46.958  82.492  40.361  0.00  0.00    +0.074 C 
ATOM      4  N   UNL     1      46.570  81.120  40.126  0.00  0.00    -0.271 NA
ATOM      5  C   UNL     1      47.764  80.341  39.988  0.00  0.00    +0.074 C 
ATOM      6  C   UNL     1      48.498  80.404  41.305  0.00  0.00    +0.038 C 
ENDROOT
BRANCH   1   9
ATOM      7  C   UNL     1      48.705  81.253  44.048  0.00  0.00    +0.229 C 
ATOM      8  O   UNL     1      47.871  80.291  43.678  0.00  0.00    -0.275 OA
ATOM      9  N   UNL     1      49.039  82.119  42.975  0.00  0.00    -0.259 N 
BRANCH   9  10
ATOM     10  C   UNL     1      49.211  83.487  43.458  0.00  0.00    +0.054 A 
ATOM     11  C   UNL     1      50.469  83.887  43.805  0.00  0.00    +0.015 A 
ATOM     12  C   UNL     1      50.732  85.212  44.190  0.00  0.00    +0.001 A 
ATOM     13  C   UNL     1      49.726  86.129  44.224  0.00  0.00    +0.000 A 
ATOM     14  C   UNL     1      48.452  85.740  43.876  0.00  0.00    +0.001 A 
ATOM     15  C   UNL     1      48.227  84.427  43.502  0.00  0.00    +0.015 A 
ENDBRANCH   9  10
BRANCH   7  17
ATOM     16  C   UNL     1      48.030  80.404  46.288  0.00  0.00    +0.010 C 
ATOM     17  C   UNL     1      49.039  81.156  45.437  0.00  0.00    +0.086 C 
ENDBRANCH   7  17
ENDBRANCH   1   9
BRANCH   4  18
ATOM     18  C   UNL     1      45.673  81.085  39.027  0.00  0.00    +0.099 C 
BRANCH  18  19
ATOM     19  C   UNL     1      45.531  79.782  38.320  0.00  0.00    +0.151 C 
BRANCH  19  20
ATOM     20  N   UNL     1      44.108  79.421  38.413  0.00  0.00    -0.180 N 
ATOM     21  C   UNL     1      43.566  78.432  39.143  0.00  0.00    +0.366 A 
ATOM     22  O   UNL     1      44.225  77.642  39.882  0.00  0.00    -0.243 OA
ATOM     23  N   UNL     1      42.236  78.463  38.927  0.00  0.00    -0.182 N 
ATOM     24  N   UNL     1      41.947  79.443  38.087  0.00  0.00    -0.042 NA
ATOM     25  N   UNL     1      43.098  80.006  37.791  0.00  0.00    -0.042 NA
BRANCH  23  26
ATOM     26  C   UNL     1      41.266  77.562  39.523  0.00  0.00    +0.134 C 
ATOM     27  C   UNL     1      41.315  76.182  38.912  0.00  0.00    +0.029 C 
ENDBRANCH  23  26
ENDBRANCH  19  20
ENDBRANCH  18  19
ENDBRANCH   4  18
BRANCH   1  28
ATOM     28  C   UNL     1      50.541  81.640  41.109  0.00  0.00    +0.161 C 
BRANCH  28  29
ATOM     29  O   UNL     1      51.275  82.670  40.945  0.00  0.00    -0.349 OA
ATOM     30  C   UNL     1      52.502  83.011  40.823  0.00  0.00    +0.174 C 
ENDBRANCH  28  29
ENDBRANCH   1  28
TORSDOF 9
