REMARK  Name = Alfuzosin
REMARK  7 active torsions:
REMARK  status: ('A' for Active; 'I' for Inactive)
REMARK    1  A    between atoms: N_2  and  C_3
REMARK    2  A    between atoms: C_3  and  C_4
REMARK    3  A    between atoms: C_4  and  C_5
REMARK    4  A    between atoms: C_5  and  N_6
REMARK    5  A    between atoms: C_7  and  C_9
REMARK    6  A    between atoms: C_18  and  O_27
REMARK    7  A    between atoms: C_19  and  O_25
REMARK                            x       y       z     vdW  Elec       q    Type
REMARK                         _______ _______ _______ _____ _____    ______ ____
ROOT
ATOM      1  C   UNL     1      43.968  78.046  40.600  0.00  0.00    +0.115 C 
ATOM      2  N   UNL     1      44.351  79.030  39.637  0.00  0.00    -0.276 N 
ATOM      3  C   UNL     1      45.320  80.019  39.975  0.00  0.00    +0.221 A 
ATOM      4  N   UNL     1      46.097  79.919  41.061  0.00  0.00    -0.213 NA
ATOM      5  C   UNL     1      47.017  80.849  41.388  0.00  0.00    +0.090 A 
ATOM      6  C   UNL     1      47.807  80.732  42.510  0.00  0.00    +0.059 A 
ATOM      7  C   UNL     1      48.745  81.711  42.818  0.00  0.00    +0.174 A 
ATOM      8  C   UNL     1      48.911  82.823  42.012  0.00  0.00    +0.173 A 
ATOM      9  C   UNL     1      48.086  82.895  40.887  0.00  0.00    +0.044 A 
ATOM     10  C   UNL     1      47.161  81.954  40.561  0.00  0.00    +0.056 A 
ATOM     11  C   UNL     1      46.369  82.077  39.436  0.00  0.00    +0.174 A 
ATOM     12  N   UNL     1      45.475  81.100  39.185  0.00  0.00    -0.195 NA
ATOM     13  N   UNL     1      46.505  83.199  38.585  0.00  0.00    -0.107 NA
ENDROOT
BRANCH   8  14
ATOM     14  O   UNL     1      49.839  83.805  42.304  0.00  0.00    -0.468 OA
ATOM     15  C   UNL     1      49.383  85.112  42.585  0.00  0.00    +0.253 C 
ENDBRANCH   8  14
BRANCH   7  16
ATOM     16  O   UNL     1      49.543  81.592  43.951  0.00  0.00    -0.468 OA
ATOM     17  C   UNL     1      49.474  80.465  44.792  0.00  0.00    +0.253 C 
ENDBRANCH   7  16
BRANCH   2  18
ATOM     18  C   UNL     1      43.731  79.020  38.288  0.00  0.00    +0.095 C 
BRANCH  18  19
ATOM     19  C   UNL     1      42.294  79.326  38.477  0.00  0.00    +0.045 C 
BRANCH  19  20
ATOM     20  C   UNL     1      41.304  78.255  38.547  0.00  0.00    +0.117 C 
BRANCH  20  21
ATOM     21  N   UNL     1      40.912  77.486  37.451  0.00  0.00    -0.203 NA
ATOM     22  C   UNL     1      40.061  76.360  37.379  0.00  0.00    +0.269 C 
ATOM     23  O   UNL     1      39.641  75.890  38.441  0.00  0.00    -0.271 OA
BRANCH  22  24
ATOM     24  C   UNL     1      39.668  75.737  36.079  0.00  0.00    +0.193 C 
ATOM     25  C   UNL     1      38.600  74.719  36.407  0.00  0.00    +0.042 C 
ATOM     26  C   UNL     1      37.681  74.843  35.191  0.00  0.00    +0.035 C 
ATOM     27  C   UNL     1      37.843  76.315  34.892  0.00  0.00    +0.143 C 
ATOM     28  O   UNL     1      39.138  76.633  35.200  0.00  0.00    -0.347 OA
ENDBRANCH  22  24
ENDBRANCH  20  21
ENDBRANCH  19  20
ENDBRANCH  18  19
ENDBRANCH   2  18
TORSDOF 7
