REMARK  Name = Alitretinoin
REMARK  5 active torsions:
REMARK  status: ('A' for Active; 'I' for Inactive)
REMARK    1  A    between atoms: C_3  and  C_10
REMARK    2  A    between atoms: C_11  and  C_12
REMARK    3  A    between atoms: C_13  and  C_14
REMARK    4  A    between atoms: C_15  and  C_16
REMARK    5  A    between atoms: C_17  and  C_18
REMARK                            x       y       z     vdW  Elec       q    Type
REMARK                         _______ _______ _______ _____ _____    ______ ____
ROOT
ATOM      1  C   UNL     1      47.864  82.540  41.244  0.00  0.00    -0.005 C 
ATOM      2  C   UNL     1      47.068  81.523  41.413  0.00  0.00    -0.005 C 
ENDROOT
BRANCH   1   5
ATOM      3  C   UNL     1      46.998  84.514  42.952  0.00  0.00    +0.026 C 
ATOM      4  C   UNL     1      48.415  84.068  42.980  0.00  0.00    -0.048 C 
ATOM      5  C   UNL     1      48.859  83.103  42.122  0.00  0.00    -0.031 C 
ATOM      6  C   UNL     1      50.275  82.749  42.243  0.00  0.00    +0.018 C 
ATOM      7  C   UNL     1      51.051  84.057  42.465  0.00  0.00    +0.004 C 
ATOM      8  C   UNL     1      50.734  84.569  43.821  0.00  0.00    +0.005 C 
ATOM      9  C   UNL     1      49.272  84.700  43.991  0.00  0.00    +0.022 C 
ATOM     10  C   UNL     1      50.935  82.100  41.068  0.00  0.00    +0.004 C 
ATOM     11  C   UNL     1      50.515  81.848  43.446  0.00  0.00    +0.004 C 
ENDBRANCH   1   5
BRANCH   2  12
ATOM     12  C   UNL     1      46.318  80.980  40.254  0.00  0.00    -0.022 C 
ATOM     13  C   UNL     1      45.780  79.741  40.312  0.00  0.00    -0.004 C 
ATOM     14  C   UNL     1      46.165  81.789  39.046  0.00  0.00    +0.031 C 
BRANCH  13  15
ATOM     15  C   UNL     1      44.591  79.516  39.616  0.00  0.00    -0.001 C 
ATOM     16  C   UNL     1      43.533  79.315  38.998  0.00  0.00    -0.004 C 
BRANCH  16  17
ATOM     17  C   UNL     1      42.720  78.155  38.791  0.00  0.00    -0.015 C 
ATOM     18  C   UNL     1      41.739  78.047  37.921  0.00  0.00    +0.082 C 
ATOM     19  C   UNL     1      42.996  76.886  39.559  0.00  0.00    +0.031 C 
BRANCH  18  20
ATOM     20  C   UNL     1      40.842  76.954  37.756  0.00  0.00    +0.388 C 
ATOM     21  O   UNL     1      39.979  77.048  36.788  0.00  0.00    -0.241 OA
ATOM     22  O   UNL     1      40.798  75.829  38.507  0.00  0.00    -0.241 OA
ENDBRANCH  18  20
ENDBRANCH  16  17
ENDBRANCH  13  15
ENDBRANCH   2  12
TORSDOF 5
