REMARK  Name = Alizapride
REMARK  6 active torsions:
REMARK  status: ('A' for Active; 'I' for Inactive)
REMARK    1  A    between atoms: O_2  and  C_3
REMARK    2  A    between atoms: C_8  and  C_9
REMARK    3  A    between atoms: N_11  and  C_12
REMARK    4  A    between atoms: C_12  and  C_13
REMARK    5  A    between atoms: N_17  and  C_18
REMARK    6  A    between atoms: C_18  and  C_19
REMARK                            x       y       z     vdW  Elec       q    Type
REMARK                         _______ _______ _______ _____ _____    ______ ____
ROOT
ATOM      1  C   UNL     1      46.963  81.357  41.336  0.00  0.00    +0.268 C 
ATOM      2  O   UNL     1      46.579  81.693  40.141  0.00  0.00    -0.268 OA
ATOM      3  N   UNL     1      46.201  80.450  42.060  0.00  0.00    -0.200 NA
ENDROOT
BRANCH   1   9
ATOM      4  C   UNL     1      48.243  83.241  42.356  0.00  0.00    +0.145 A 
ATOM      5  C   UNL     1      49.456  83.838  42.740  0.00  0.00    +0.060 A 
ATOM      6  C   UNL     1      50.633  83.182  42.506  0.00  0.00    +0.127 A 
ATOM      7  C   UNL     1      50.635  81.952  41.903  0.00  0.00    +0.124 A 
ATOM      8  C   UNL     1      49.436  81.393  41.539  0.00  0.00    +0.030 A 
ATOM      9  C   UNL     1      48.200  82.021  41.755  0.00  0.00    +0.091 A 
ATOM     10  N   UNL     1      51.933  81.579  41.818  0.00  0.00    -0.127 NA
ATOM     11  N   UNL     1      52.710  82.520  42.337  0.00  0.00    -0.042 NA
ATOM     12  N   UNL     1      51.899  83.492  42.753  0.00  0.00    -0.127 NA
BRANCH   4  14
ATOM     13  C   UNL     1      47.157  85.168  43.327  0.00  0.00    +0.252 C 
ATOM     14  O   UNL     1      47.113  83.960  42.625  0.00  0.00    -0.471 OA
ENDBRANCH   4  14
ENDBRANCH   1   9
BRANCH   3  15
ATOM     15  C   UNL     1      45.096  79.705  41.612  0.00  0.00    +0.131 C 
BRANCH  15  16
ATOM     16  C   UNL     1      45.149  78.710  40.546  0.00  0.00    +0.080 C 
ATOM     17  C   UNL     1      45.695  77.374  40.840  0.00  0.00    +0.019 C 
ATOM     18  C   UNL     1      44.606  76.710  41.649  0.00  0.00    +0.019 C 
ATOM     19  C   UNL     1      43.371  77.503  41.268  0.00  0.00    +0.072 C 
ATOM     20  N   UNL     1      43.744  78.401  40.210  0.00  0.00    -0.269 NA
BRANCH  20  21
ATOM     21  C   UNL     1      43.564  77.791  38.947  0.00  0.00    +0.099 C 
BRANCH  21  22
ATOM     22  C   UNL     1      42.481  78.338  38.122  0.00  0.00    -0.009 C 
ATOM     23  C   UNL     1      42.391  79.626  37.837  0.00  0.00    -0.003 C 
ENDBRANCH  21  22
ENDBRANCH  20  21
ENDBRANCH  15  16
ENDBRANCH   3  15
TORSDOF 6
