REMARK  Name = Allopregnanolone
REMARK  1 active torsions:
REMARK  status: ('A' for Active; 'I' for Inactive)
REMARK    1  A    between atoms: C_2  and  C_4
REMARK                            x       y       z     vdW  Elec       q    Type
REMARK                         _______ _______ _______ _____ _____    ______ ____
ROOT
ATOM      1  C   UNL     1      49.633  83.116  42.988  0.00  0.00    +0.058 C 
ATOM      2  C   UNL     1      48.530  84.128  42.995  0.00  0.00    +0.007 C 
ATOM      3  C   UNL     1      47.280  83.274  42.996  0.00  0.00    +0.000 C 
ATOM      4  C   UNL     1      47.734  81.845  42.785  0.00  0.00    +0.000 C 
ATOM      5  C   UNL     1      49.047  82.019  42.108  0.00  0.00    +0.007 C 
ATOM      6  C   UNL     1      48.933  82.428  40.681  0.00  0.00    +0.000 C 
ATOM      7  C   UNL     1      47.757  82.015  39.929  0.00  0.00    +0.000 C 
ATOM      8  C   UNL     1      46.557  81.509  40.620  0.00  0.00    +0.000 C 
ATOM      9  C   UNL     1      46.723  81.055  42.032  0.00  0.00    +0.000 C 
ATOM     10  C   UNL     1      46.962  79.565  42.172  0.00  0.00    +0.000 C 
ATOM     11  C   UNL     1      45.755  78.854  41.674  0.00  0.00    +0.000 C 
ATOM     12  C   UNL     1      44.903  79.703  40.723  0.00  0.00    +0.003 C 
ATOM     13  C   UNL     1      45.788  80.483  39.797  0.00  0.00    +0.000 C 
ATOM     14  C   UNL     1      44.850  81.211  38.824  0.00  0.00    +0.003 C 
ATOM     15  C   UNL     1      44.201  80.168  37.981  0.00  0.00    +0.033 C 
ATOM     16  C   UNL     1      43.421  79.164  38.748  0.00  0.00    +0.152 C 
ATOM     17  C   UNL     1      43.940  78.789  40.069  0.00  0.00    +0.033 C 
ATOM     18  O   UNL     1      43.305  78.013  37.931  0.00  0.00    -0.223 OA
ATOM     19  C   UNL     1      46.670  79.613  38.950  0.00  0.00    +0.000 C 
ATOM     20  C   UNL     1      49.972  80.821  42.295  0.00  0.00    +0.000 C 
ENDROOT
BRANCH   1  22
ATOM     21  C   UNL     1      51.345  84.978  42.947  0.00  0.00    +0.072 C 
ATOM     22  C   UNL     1      50.920  83.621  42.499  0.00  0.00    +0.151 C 
ATOM     23  O   UNL     1      51.678  83.027  41.756  0.00  0.00    -0.296 OA
ENDBRANCH   1  22
TORSDOF 1
