REMARK  Name = Alloferon
REMARK  39 active torsions:
REMARK  status: ('A' for Active; 'I' for Inactive)
REMARK    1  A    between atoms: CB_2  and  CA_4
REMARK    2  A    between atoms: CA_4  and  C_5
REMARK    3  A    between atoms: CA_4  and  N_22
REMARK    4  A    between atoms: N_7  and  CA_8
REMARK    5  A    between atoms: CA_8  and  CB_9
REMARK    6  A    between atoms: CA_8  and  C_15
REMARK    7  A    between atoms: CB_9  and  CG_10
REMARK    8  A    between atoms: N_17  and  CA_18
REMARK    9  A    between atoms: CA_18  and  C_19
REMARK   10  A    between atoms: C_23  and  CA_25
REMARK   11  A    between atoms: CA_25  and  N_26
REMARK   12  A    between atoms: C_27  and  CA_29
REMARK   13  A    between atoms: CA_29  and  CB_30
REMARK   14  A    between atoms: CA_29  and  N_36
REMARK   15  A    between atoms: CB_30  and  CG_31
REMARK   16  A    between atoms: C_37  and  CA_39
REMARK   17  A    between atoms: CA_39  and  CB_40
REMARK   18  A    between atoms: CA_39  and  N_45
REMARK   19  A    between atoms: CB_40  and  CG_41
REMARK   20  A    between atoms: CG_41  and  CD_42
REMARK   21  A    between atoms: C_46  and  CA_48
REMARK   22  A    between atoms: CA_48  and  N_49
REMARK   23  A    between atoms: C_50  and  CA_52
REMARK   24  A    between atoms: CA_52  and  CB_53
REMARK   25  A    between atoms: CA_52  and  N_59
REMARK   26  A    between atoms: CB_53  and  CG_54
REMARK   27  A    between atoms: C_60  and  CA_62
REMARK   28  A    between atoms: CA_62  and  N_63
REMARK   29  A    between atoms: C_64  and  CA_66
REMARK   30  A    between atoms: CA_66  and  CB_67
REMARK   31  A    between atoms: CA_66  and  N_69
REMARK   32  A    between atoms: C_70  and  CA_72
REMARK   33  A    between atoms: CA_72  and  CB_73
REMARK   34  A    between atoms: CA_72  and  N_76
REMARK   35  A    between atoms: C_77  and  CA_79
REMARK   36  A    between atoms: CA_79  and  N_80
REMARK   37  A    between atoms: C_81  and  CA_83
REMARK   38  A    between atoms: CA_83  and  CB_84
REMARK   39  A    between atoms: CB_84  and  CG_85
REMARK                            x       y       z     vdW  Elec       q    Type
REMARK                         _______ _______ _______ _____ _____    ______ ____
ROOT
ATOM      1  N   GLN A   8      42.173  75.863  38.607  0.00  0.00    -0.196 NA
ATOM      2  C   GLY A   7      42.140  76.824  39.634  0.00  0.00    +0.264 C 
ATOM      3  O   GLY A   7      41.397  77.843  39.434  0.00  0.00    -0.271 OA
ENDROOT
BRANCH   2   4
ATOM      4  CA  GLY A   7      42.930  76.671  40.869  0.00  0.00    +0.201 C 
BRANCH   4   5
ATOM      5  N   GLY A   7      43.931  77.663  41.050  0.00  0.00    -0.194 NA
ATOM      6  C   HIS A   6      44.065  78.786  40.222  0.00  0.00    +0.262 C 
ATOM      7  O   HIS A   6      43.287  78.974  39.276  0.00  0.00    -0.271 OA
BRANCH   6   8
ATOM      8  CA  HIS A   6      45.161  79.785  40.473  0.00  0.00    +0.179 C 
BRANCH   8   9
ATOM      9  N   HIS A   6      46.105  79.189  41.398  0.00  0.00    -0.196 NA
ATOM     10  C   GLY A   5      47.327  79.878  41.711  0.00  0.00    +0.264 C 
ATOM     11  O   GLY A   5      47.505  80.955  41.066  0.00  0.00    -0.271 OA
BRANCH  10  12
ATOM     12  CA  GLY A   5      48.318  79.401  42.699  0.00  0.00    +0.201 C 
BRANCH  12  13
ATOM     13  N   GLY A   5      49.156  80.531  43.056  0.00  0.00    -0.194 NA
ATOM     14  C   SER A   4      49.338  81.048  44.349  0.00  0.00    +0.264 C 
ATOM     15  O   SER A   4      48.673  80.571  45.291  0.00  0.00    -0.271 OA
BRANCH  14  16
ATOM     16  CA  SER A   4      50.308  82.159  44.672  0.00  0.00    +0.205 C 
BRANCH  16  17
ATOM     17  N   SER A   4      50.632  82.149  46.087  0.00  0.00    -0.194 NA
ATOM     18  C   VAL A   3      51.884  81.797  46.631  0.00  0.00    +0.262 C 
ATOM     19  O   VAL A   3      52.799  81.442  45.847  0.00  0.00    -0.271 OA
BRANCH  18  20
ATOM     20  CA  VAL A   3      52.203  81.812  48.100  0.00  0.00    +0.173 C 
BRANCH  20  21
ATOM     21  N   VAL A   3      52.796  80.559  48.462  0.00  0.00    -0.196 NA
ATOM     22  C   GLY A   2      52.624  79.684  49.528  0.00  0.00    +0.264 C 
ATOM     23  O   GLY A   2      51.668  79.959  50.344  0.00  0.00    -0.271 OA
BRANCH  22  24
ATOM     24  CA  GLY A   2      53.443  78.475  49.803  0.00  0.00    +0.201 C 
BRANCH  24  25
ATOM     25  N   GLY A   2      53.312  77.905  51.084  0.00  0.00    -0.194 NA
ATOM     26  C   HIS A   1      54.093  76.737  51.399  0.00  0.00    +0.260 C 
ATOM     27  O   HIS A   1      54.802  76.245  50.505  0.00  0.00    -0.272 OA
BRANCH  26  28
ATOM     28  CA  HIS A   1      53.981  76.218  52.792  0.00  0.00    +0.175 C 
ATOM     29  N   HIS A   1      54.364  74.816  52.841  0.00  0.00    -0.123 NA
BRANCH  28  30
ATOM     30  CB  HIS A   1      54.814  77.012  53.750  0.00  0.00    +0.076 C 
BRANCH  30  31
ATOM     31  CG  HIS A   1      54.614  76.702  55.179  0.00  0.00    +0.082 A 
ATOM     32  CD2 HIS A   1      53.836  75.788  55.822  0.00  0.00    +0.115 A 
ATOM     33  NE2 HIS A   1      54.014  75.916  57.144  0.00  0.00    -0.221 NA
ATOM     34  CE1 HIS A   1      54.895  76.906  57.324  0.00  0.00    +0.199 A 
ATOM     35  ND1 HIS A   1      55.281  77.406  56.144  0.00  0.00    -0.227 NA
ENDBRANCH  30  31
ENDBRANCH  28  30
ENDBRANCH  26  28
ENDBRANCH  24  25
ENDBRANCH  22  24
ENDBRANCH  20  21
BRANCH  20  36
ATOM     36  CB  VAL A   3      53.152  83.009  48.255  0.00  0.00    +0.029 C 
ATOM     37  CG1 VAL A   3      54.064  82.944  49.402  0.00  0.00    +0.002 C 
ATOM     38  CG2 VAL A   3      52.490  84.284  47.931  0.00  0.00    +0.002 C 
ENDBRANCH  20  36
ENDBRANCH  18  20
ENDBRANCH  16  17
BRANCH  16  39
ATOM     39  CB  SER A   4      49.616  83.454  44.361  0.00  0.00    +0.213 C 
ATOM     40  OG  SER A   4      50.380  84.571  44.628  0.00  0.00    -0.218 OA
ENDBRANCH  16  39
ENDBRANCH  14  16
ENDBRANCH  12  13
ENDBRANCH  10  12
ENDBRANCH   8   9
BRANCH   8  41
ATOM     41  CB  HIS A   6      45.903  80.018  39.157  0.00  0.00    +0.079 C 
BRANCH  41  42
ATOM     42  CG  HIS A   6      46.613  81.288  39.084  0.00  0.00    +0.082 A 
ATOM     43  CD2 HIS A   6      46.589  82.279  40.032  0.00  0.00    +0.115 A 
ATOM     44  NE2 HIS A   6      47.349  83.295  39.597  0.00  0.00    -0.221 NA
ATOM     45  CE1 HIS A   6      47.852  82.963  38.393  0.00  0.00    +0.199 A 
ATOM     46  ND1 HIS A   6      47.412  81.757  38.078  0.00  0.00    -0.227 NA
ENDBRANCH  41  42
ENDBRANCH   8  41
ENDBRANCH   6   8
ENDBRANCH   4   5
ENDBRANCH   2   4
BRANCH   1  47
ATOM     47  CA  GLN A   8      40.968  75.059  38.288  0.00  0.00    +0.173 C 
BRANCH  47  49
ATOM     48  N   HIS A   9      38.960  75.605  36.903  0.00  0.00    -0.196 NA
ATOM     49  C   GLN A   8      40.339  75.618  37.082  0.00  0.00    +0.262 C 
ATOM     50  O   GLN A   8      41.087  76.140  36.184  0.00  0.00    -0.271 OA
BRANCH  48  51
ATOM     51  CA  HIS A   9      38.189  76.075  35.745  0.00  0.00    +0.179 C 
BRANCH  51  53
ATOM     52  N   GLY A  10      37.867  74.888  33.504  0.00  0.00    -0.194 NA
ATOM     53  C   HIS A   9      37.789  74.957  34.907  0.00  0.00    +0.262 C 
ATOM     54  O   HIS A   9      37.317  73.924  35.495  0.00  0.00    -0.271 OA
BRANCH  52  55
ATOM     55  CA  GLY A  10      37.413  73.682  32.839  0.00  0.00    +0.201 C 
BRANCH  55  57
ATOM     56  N   VAL A  11      38.100  72.663  30.594  0.00  0.00    -0.196 NA
ATOM     57  C   GLY A  10      37.583  73.743  31.374  0.00  0.00    +0.264 C 
ATOM     58  O   GLY A  10      37.267  74.781  30.720  0.00  0.00    -0.271 OA
BRANCH  56  59
ATOM     59  CA  VAL A  11      38.158  72.772  29.134  0.00  0.00    +0.173 C 
BRANCH  59  61
ATOM     60  CG1 VAL A  11      38.883  71.174  27.348  0.00  0.00    +0.002 C 
ATOM     61  CB  VAL A  11      39.204  71.755  28.703  0.00  0.00    +0.029 C 
ATOM     62  CG2 VAL A  11      39.422  70.682  29.746  0.00  0.00    +0.002 C 
ENDBRANCH  59  61
BRANCH  59  63
ATOM     63  C   VAL A  11      36.884  72.366  28.497  0.00  0.00    +0.262 C 
ATOM     64  O   VAL A  11      36.323  71.271  28.737  0.00  0.00    -0.271 OA
ATOM     65  N   HIS A  12      36.270  73.257  27.578  0.00  0.00    -0.196 NA
BRANCH  65  66
ATOM     66  CA  HIS A  12      35.023  72.968  26.904  0.00  0.00    +0.179 C 
BRANCH  66  67
ATOM     67  C   HIS A  12      34.601  74.058  25.974  0.00  0.00    +0.262 C 
ATOM     68  O   HIS A  12      33.516  73.948  25.365  0.00  0.00    -0.271 OA
ATOM     69  N   GLY A  13      35.447  75.177  25.814  0.00  0.00    -0.192 NA
BRANCH  69  70
ATOM     70  CA  GLY A  13      35.115  76.315  24.989  0.00  0.00    +0.228 C 
BRANCH  70  71
ATOM     71  C   GLY A  13      35.895  76.236  23.717  0.00  0.00    +0.387 C 
ATOM     72  O   GLY A  13      36.613  75.214  23.517  0.00  0.00    -0.244 OA
ATOM     73  OXT GLY A  13      35.875  77.216  22.750  0.00  0.00    -0.244 OA
ENDBRANCH  70  71
ENDBRANCH  69  70
ENDBRANCH  66  67
BRANCH  66  74
ATOM     74  CB  HIS A  12      35.029  71.634  26.302  0.00  0.00    +0.079 C 
BRANCH  74  75
ATOM     75  CG  HIS A  12      34.586  70.576  27.255  0.00  0.00    +0.082 A 
ATOM     76  CD2 HIS A  12      34.124  70.808  28.564  0.00  0.00    +0.115 A 
ATOM     77  NE2 HIS A  12      33.790  69.630  29.109  0.00  0.00    -0.221 NA
ATOM     78  CE1 HIS A  12      34.017  68.668  28.212  0.00  0.00    +0.199 A 
ATOM     79  ND1 HIS A  12      34.494  69.250  27.106  0.00  0.00    -0.227 NA
ENDBRANCH  74  75
ENDBRANCH  66  74
ENDBRANCH  65  66
ENDBRANCH  59  63
ENDBRANCH  56  59
ENDBRANCH  55  57
ENDBRANCH  52  55
ENDBRANCH  51  53
BRANCH  51  80
ATOM     80  CB  HIS A   9      37.042  76.959  36.237  0.00  0.00    +0.079 C 
BRANCH  80  81
ATOM     81  CG  HIS A   9      37.434  78.274  36.767  0.00  0.00    +0.082 A 
ATOM     82  CD2 HIS A   9      38.752  78.765  36.866  0.00  0.00    +0.115 A 
ATOM     83  NE2 HIS A   9      38.737  79.990  37.388  0.00  0.00    -0.221 NA
ATOM     84  CE1 HIS A   9      37.462  80.314  37.634  0.00  0.00    +0.199 A 
ATOM     85  ND1 HIS A   9      36.680  79.270  37.254  0.00  0.00    -0.227 NA
ENDBRANCH  80  81
ENDBRANCH  51  80
ENDBRANCH  48  51
ENDBRANCH  47  49
BRANCH  47  86
ATOM     86  CB  GLN A   8      41.461  73.646  38.198  0.00  0.00    +0.041 C 
BRANCH  86  87
ATOM     87  CG  GLN A   8      40.785  72.633  39.038  0.00  0.00    +0.091 C 
BRANCH  87  88
ATOM     88  CD  GLN A   8      40.950  71.268  38.564  0.00  0.00    +0.261 C 
ATOM     89  OE1 GLN A   8      41.529  71.039  37.483  0.00  0.00    -0.272 OA
ATOM     90  NE2 GLN A   8      40.462  70.119  39.285  0.00  0.00    -0.088 NA
ENDBRANCH  87  88
ENDBRANCH  86  87
ENDBRANCH  47  86
ENDBRANCH   1  47
TORSDOF 39
