REMARK  Name = Allopurinol
REMARK  0 active torsions:
REMARK  status: ('A' for Active; 'I' for Inactive)
REMARK                            x       y       z     vdW  Elec       q    Type
REMARK                         _______ _______ _______ _____ _____    ______ ____
ROOT
ATOM      1  C   UNL     1      47.443  82.033  40.722  0.00  0.00    +0.130 A 
ATOM      2  N   UNL     1      47.673  83.191  40.054  0.00  0.00    -0.145 NA
ATOM      3  N   UNL     1      46.808  83.291  39.055  0.00  0.00    -0.128 NA
ATOM      4  C   UNL     1      46.004  82.200  39.058  0.00  0.00    +0.191 A 
ATOM      5  C   UNL     1      46.385  81.385  40.105  0.00  0.00    +0.116 A 
ATOM      6  C   UNL     1      45.711  80.195  40.325  0.00  0.00    +0.285 A 
ATOM      7  O   UNL     1      46.041  79.452  41.262  0.00  0.00    -0.265 OA
ATOM      8  N   UNL     1      44.686  79.803  39.543  0.00  0.00    -0.185 NA
ATOM      9  C   UNL     1      44.333  80.608  38.533  0.00  0.00    +0.203 A 
ATOM     10  N   UNL     1      44.976  81.771  38.301  0.00  0.00    -0.203 NA
ENDROOT
TORSDOF 0
