REMARK  Name = Almitrine
REMARK  7 active torsions:
REMARK  status: ('A' for Active; 'I' for Inactive)
REMARK    1  A    between atoms: C_2  and  C_3
REMARK    2  A    between atoms: C_3  and  N_4
REMARK    3  A    between atoms: N_14  and  C_17
REMARK    4  A    between atoms: C_17  and  C_18
REMARK    5  A    between atoms: C_17  and  C_25
REMARK    6  A    between atoms: N_32  and  C_33
REMARK    7  A    between atoms: C_33  and  C_34
REMARK                            x       y       z     vdW  Elec       q    Type
REMARK                         _______ _______ _______ _____ _____    ______ ____
ROOT
ATOM      1  N   UNL     1      41.816  78.373  37.044  0.00  0.00    -0.199 NA
ATOM      2  C   UNL     1      42.582  78.444  38.233  0.00  0.00    +0.242 A 
ATOM      3  N   UNL     1      42.406  77.499  39.179  0.00  0.00    -0.178 NA
ATOM      4  C   UNL     1      43.112  77.537  40.314  0.00  0.00    +0.242 A 
ATOM      5  N   UNL     1      43.991  78.525  40.489  0.00  0.00    -0.179 NA
ATOM      6  C   UNL     1      44.205  79.491  39.580  0.00  0.00    +0.225 A 
ATOM      7  N   UNL     1      43.486  79.437  38.446  0.00  0.00    -0.179 NA
ATOM      8  N   UNL     1      45.147  80.524  39.808  0.00  0.00    -0.275 N 
ATOM      9  C   UNL     1      45.725  80.654  41.148  0.00  0.00    +0.111 C 
ATOM     10  C   UNL     1      47.206  80.552  40.945  0.00  0.00    +0.094 C 
ATOM     11  N   UNL     1      47.727  81.581  40.127  0.00  0.00    -0.264 NA
ATOM     12  C   UNL     1      46.988  81.946  38.988  0.00  0.00    +0.094 C 
ATOM     13  C   UNL     1      45.594  81.455  38.833  0.00  0.00    +0.111 C 
ATOM     14  N   UNL     1      42.947  76.559  41.336  0.00  0.00    -0.199 NA
ENDROOT
BRANCH   1  15
ATOM     15  C   UNL     1      41.194  77.150  36.574  0.00  0.00    +0.141 C 
BRANCH  15  17
ATOM     16  C   UNL     1      38.830  77.703  36.552  0.00  0.00    -0.003 C 
ATOM     17  C   UNL     1      39.816  77.053  37.118  0.00  0.00    -0.003 C 
ENDBRANCH  15  17
ENDBRANCH   1  15
BRANCH  11  18
ATOM     18  C   UNL     1      48.590  82.512  40.717  0.00  0.00    +0.103 C 
BRANCH  18  19
ATOM     19  C   UNL     1      50.023  82.195  40.848  0.00  0.00    -0.003 A 
ATOM     20  C   UNL     1      50.880  83.234  41.159  0.00  0.00    -0.000 A 
ATOM     21  C   UNL     1      52.238  83.065  41.289  0.00  0.00    +0.029 A 
ATOM     22  C   UNL     1      52.811  81.818  41.110  0.00  0.00    +0.140 A 
ATOM     23  C   UNL     1      51.984  80.773  40.802  0.00  0.00    +0.029 A 
ATOM     24  C   UNL     1      50.619  80.968  40.675  0.00  0.00    -0.000 A 
ATOM     25  F   UNL     1      54.170  81.654  41.243  0.00  0.00    -0.204 F 
ENDBRANCH  18  19
BRANCH  18  26
ATOM     26  C   UNL     1      48.085  83.419  41.770  0.00  0.00    -0.003 A 
ATOM     27  C   UNL     1      47.476  84.633  41.566  0.00  0.00    -0.000 A 
ATOM     28  C   UNL     1      47.006  85.466  42.563  0.00  0.00    +0.029 A 
ATOM     29  C   UNL     1      47.153  85.059  43.868  0.00  0.00    +0.140 A 
ATOM     30  C   UNL     1      47.753  83.853  44.160  0.00  0.00    +0.029 A 
ATOM     31  C   UNL     1      48.199  83.071  43.133  0.00  0.00    -0.000 A 
ATOM     32  F   UNL     1      46.687  85.887  44.845  0.00  0.00    -0.204 F 
ENDBRANCH  18  26
ENDBRANCH  11  18
BRANCH  14  33
ATOM     33  C   UNL     1      43.765  76.577  42.536  0.00  0.00    +0.141 C 
BRANCH  33  34
ATOM     34  C   UNL     1      43.246  75.630  43.556  0.00  0.00    -0.003 C 
ATOM     35  C   UNL     1      43.834  74.471  43.825  0.00  0.00    -0.003 C 
ENDBRANCH  33  34
ENDBRANCH  14  33
TORSDOF 7
