REMARK  Name = Almogran
REMARK  6 active torsions:
REMARK  status: ('A' for Active; 'I' for Inactive)
REMARK    1  A    between atoms: N_2  and  C_4
REMARK    2  A    between atoms: C_4  and  C_5
REMARK    3  A    between atoms: C_5  and  C_6
REMARK    4  A    between atoms: C_12  and  C_15
REMARK    5  A    between atoms: C_15  and  S_16
REMARK    6  A    between atoms: S_16  and  N_19
REMARK                            x       y       z     vdW  Elec       q    Type
REMARK                         _______ _______ _______ _____ _____    ______ ____
ROOT
ATOM      1  C   UNL     1      44.857  79.753  39.647  0.00  0.00    -0.000 A 
ATOM      2  C   UNL     1      44.083  80.506  38.795  0.00  0.00    +0.095 A 
ATOM      3  N   UNL     1      44.720  81.660  38.596  0.00  0.00    -0.244 NA
ATOM      4  C   UNL     1      45.870  81.678  39.285  0.00  0.00    +0.081 A 
ATOM      5  C   UNL     1      45.977  80.499  39.949  0.00  0.00    +0.015 A 
ATOM      6  C   UNL     1      47.079  80.239  40.751  0.00  0.00    -0.001 A 
ATOM      7  C   UNL     1      48.112  81.152  40.917  0.00  0.00    +0.003 A 
ATOM      8  C   UNL     1      47.990  82.345  40.237  0.00  0.00    -0.001 A 
ATOM      9  C   UNL     1      46.898  82.609  39.439  0.00  0.00    +0.019 A 
ENDROOT
BRANCH   1  10
ATOM     10  C   UNL     1      44.526  78.375  40.145  0.00  0.00    +0.045 C 
BRANCH  10  11
ATOM     11  C   UNL     1      43.060  78.223  40.252  0.00  0.00    +0.077 C 
BRANCH  11  13
ATOM     12  C   UNL     1      43.320  76.506  38.614  0.00  0.00    +0.090 C 
ATOM     13  N   UNL     1      42.492  77.076  39.635  0.00  0.00    -0.270 NA
ATOM     14  C   UNL     1      42.002  76.060  40.488  0.00  0.00    +0.090 C 
ENDBRANCH  11  13
ENDBRANCH  10  11
ENDBRANCH   1  10
BRANCH   7  15
ATOM     15  C   UNL     1      49.277  80.834  41.787  0.00  0.00    +0.195 C 
BRANCH  15  16
ATOM     16  S   UNL     1      49.077  81.640  43.352  0.00  0.00    +0.048 S 
ATOM     17  O   UNL     1      47.944  82.610  43.222  0.00  0.00    -0.157 OA
ATOM     18  O   UNL     1      48.776  80.558  44.368  0.00  0.00    -0.157 OA
BRANCH  16  19
ATOM     19  N   UNL     1      50.457  82.463  43.870  0.00  0.00    -0.159 NA
ATOM     20  C   UNL     1      50.344  83.891  43.904  0.00  0.00    +0.095 C 
ATOM     21  C   UNL     1      51.227  84.449  42.833  0.00  0.00    +0.021 C 
ATOM     22  C   UNL     1      52.255  83.383  42.611  0.00  0.00    +0.021 C 
ATOM     23  C   UNL     1      51.659  82.121  43.152  0.00  0.00    +0.095 C 
ENDBRANCH  16  19
ENDBRANCH  15  16
ENDBRANCH   7  15
TORSDOF 6
