REMARK  Name = Alogliptin/pioglitazone
REMARK  11 active torsions:
REMARK  status: ('A' for Active; 'I' for Inactive)
REMARK    1  A    between atoms: C_2  and  C_3
REMARK    2  A    between atoms: C_6  and  C_9
REMARK    3  A    between atoms: C_9  and  C_10
REMARK    4  A    between atoms: C_10  and  O_11
REMARK    5  A    between atoms: O_11  and  C_12
REMARK    6  A    between atoms: C_15  and  C_18
REMARK    7  A    between atoms: C_18  and  C_19
REMARK    8  A    between atoms: C_31  and  N_44
REMARK    9  A    between atoms: N_32  and  C_35
REMARK   10  A    between atoms: C_35  and  C_36
REMARK   11  A    between atoms: C_41  and  C_42
REMARK                            x       y       z     vdW  Elec       q    Type
REMARK                         _______ _______ _______ _____ _____    ______ ____
ROOT
ATOM      1  C   UNL     1      46.437  79.192  40.000  0.00  0.00    +0.139 A 
ATOM      2  C   UNL     1      47.378  78.511  40.742  0.00  0.00    +0.037 A 
ATOM      3  C   UNL     1      48.134  79.143  41.706  0.00  0.00    -0.001 A 
ATOM      4  C   UNL     1      47.986  80.509  41.982  0.00  0.00    -0.021 A 
ATOM      5  C   UNL     1      47.044  81.177  41.236  0.00  0.00    -0.001 A 
ATOM      6  C   UNL     1      46.275  80.536  40.256  0.00  0.00    +0.037 A 
ENDROOT
BRANCH   1   7
ATOM      7  O   UNL     1      45.695  78.519  39.038  0.00  0.00    -0.475 OA
BRANCH   7   8
ATOM      8  C   UNL     1      44.338  78.228  39.165  0.00  0.00    +0.212 C 
BRANCH   8   9
ATOM      9  C   UNL     1      43.857  77.543  37.906  0.00  0.00    +0.093 C 
BRANCH   9  13
ATOM     10  C   UNL     1      39.684  76.832  38.371  0.00  0.00    -0.003 A 
ATOM     11  C   UNL     1      40.415  77.480  39.340  0.00  0.00    +0.094 A 
ATOM     12  N   UNL     1      41.732  77.698  39.181  0.00  0.00    -0.248 NA
ATOM     13  C   UNL     1      42.387  77.300  38.085  0.00  0.00    +0.063 A 
ATOM     14  C   UNL     1      41.664  76.648  37.104  0.00  0.00    +0.015 A 
ATOM     15  C   UNL     1      40.312  76.404  37.226  0.00  0.00    -0.002 A 
BRANCH  10  17
ATOM     16  C   UNL     1      37.837  75.379  37.785  0.00  0.00    +0.005 C 
ATOM     17  C   UNL     1      38.239  76.612  38.585  0.00  0.00    +0.028 C 
ENDBRANCH  10  17
ENDBRANCH   9  13
ENDBRANCH   8   9
ENDBRANCH   7   8
ENDBRANCH   1   7
BRANCH   4  18
ATOM     18  C   UNL     1      48.811  81.157  43.031  0.00  0.00    +0.047 C 
BRANCH  18  19
ATOM     19  C   UNL     1      48.999  82.639  42.821  0.00  0.00    +0.139 C 
ATOM     20  C   UNL     1      50.010  83.235  43.713  0.00  0.00    +0.259 C 
ATOM     21  O   UNL     1      51.163  82.672  43.832  0.00  0.00    -0.272 OA
ATOM     22  N   UNL     1      49.621  84.399  44.375  0.00  0.00    -0.135 NA
ATOM     23  C   UNL     1      48.233  84.509  44.623  0.00  0.00    +0.299 C 
ATOM     24  O   UNL     1      47.710  85.146  45.558  0.00  0.00    -0.261 OA
ATOM     25  S   UNL     1      47.492  83.546  43.314  0.00  0.00    -0.046 S 
ENDBRANCH  18  19
ENDBRANCH   4  18
TORSDOF 7
REMARK  Name = Alogliptin/pioglitazone
REMARK  11 active torsions:
REMARK  status: ('A' for Active; 'I' for Inactive)
REMARK    1  A    between atoms: C_2  and  C_3
REMARK    2  A    between atoms: C_6  and  C_9
REMARK    3  A    between atoms: C_9  and  C_10
REMARK    4  A    between atoms: C_10  and  O_11
REMARK    5  A    between atoms: O_11  and  C_12
REMARK    6  A    between atoms: C_15  and  C_18
REMARK    7  A    between atoms: C_18  and  C_19
REMARK    8  A    between atoms: C_31  and  N_44
REMARK    9  A    between atoms: N_32  and  C_35
REMARK   10  A    between atoms: C_35  and  C_36
REMARK   11  A    between atoms: C_41  and  C_42
REMARK                            x       y       z     vdW  Elec       q    Type
REMARK                         _______ _______ _______ _____ _____    ______ ____
ROOT
ATOM      1  C   UNL     1      46.636  83.333  39.186  0.00  0.00    +0.138 C 
ATOM      2  N   UNL     1      46.303  82.033  39.712  0.00  0.00    -0.247 N 
ATOM      3  C   UNL     1      44.993  81.737  39.886  0.00  0.00    +0.267 A 
ATOM      4  O   UNL     1      44.106  82.569  39.590  0.00  0.00    -0.267 OA
ATOM      5  C   UNL     1      44.657  80.522  40.386  0.00  0.00    +0.093 A 
ATOM      6  C   UNL     1      45.652  79.574  40.721  0.00  0.00    +0.121 A 
ATOM      7  N   UNL     1      46.903  79.904  40.531  0.00  0.00    -0.265 N 
ATOM      8  C   UNL     1      47.240  81.154  40.022  0.00  0.00    +0.335 A 
ATOM      9  O   UNL     1      48.471  81.431  39.865  0.00  0.00    -0.246 OA
ENDROOT
BRANCH   6  10
ATOM     10  N   UNL     1      45.175  78.366  41.276  0.00  0.00    -0.293 N 
ATOM     11  C   UNL     1      45.649  78.054  42.615  0.00  0.00    +0.092 C 
ATOM     12  C   UNL     1      44.547  77.452  43.455  0.00  0.00    +0.023 C 
ATOM     13  C   UNL     1      43.753  76.440  42.657  0.00  0.00    +0.023 C 
ATOM     14  C   UNL     1      43.087  77.210  41.532  0.00  0.00    +0.112 C 
ATOM     15  C   UNL     1      44.238  77.556  40.557  0.00  0.00    +0.111 C 
ATOM     16  N   UNL     1      42.132  76.346  40.845  0.00  0.00    -0.131 NA
ENDBRANCH   6  10
BRANCH   7  17
ATOM     17  C   UNL     1      48.022  79.044  40.804  0.00  0.00    +0.139 C 
BRANCH  17  18
ATOM     18  C   UNL     1      49.227  79.921  41.073  0.00  0.00    +0.010 A 
ATOM     19  C   UNL     1      49.212  81.234  40.697  0.00  0.00    -0.002 A 
ATOM     20  C   UNL     1      50.395  81.986  40.823  0.00  0.00    -0.000 A 
ATOM     21  C   UNL     1      51.539  81.402  41.315  0.00  0.00    +0.001 A 
ATOM     22  C   UNL     1      51.529  80.081  41.688  0.00  0.00    +0.010 A 
ATOM     23  C   UNL     1      50.355  79.355  41.560  0.00  0.00    +0.066 A 
BRANCH  23  24
ATOM     24  C   UNL     1      50.346  78.009  42.050  0.00  0.00    +0.100 C 
ATOM     25  N   UNL     1      50.318  76.909  42.452  0.00  0.00    -0.191 NA
ENDBRANCH  23  24
ENDBRANCH  17  18
ENDBRANCH   7  17
TORSDOF 4
