REMARK  Name = Alogliptin
REMARK  4 active torsions:
REMARK  status: ('A' for Active; 'I' for Inactive)
REMARK    1  A    between atoms: C_6  and  N_19
REMARK    2  A    between atoms: N_7  and  C_10
REMARK    3  A    between atoms: C_10  and  C_11
REMARK    4  A    between atoms: C_16  and  C_17
REMARK                            x       y       z     vdW  Elec       q    Type
REMARK                         _______ _______ _______ _____ _____    ______ ____
ROOT
ATOM      1  C   UNL     1      47.278  83.731  38.718  0.00  0.00    +0.138 C 
ATOM      2  N   UNL     1      46.935  82.482  39.311  0.00  0.00    -0.247 N 
ATOM      3  C   UNL     1      46.095  81.596  38.677  0.00  0.00    +0.267 A 
ATOM      4  O   UNL     1      45.728  81.882  37.526  0.00  0.00    -0.267 OA
ATOM      5  C   UNL     1      45.689  80.463  39.249  0.00  0.00    +0.093 A 
ATOM      6  C   UNL     1      46.091  80.100  40.562  0.00  0.00    +0.121 A 
ATOM      7  N   UNL     1      46.916  80.988  41.132  0.00  0.00    -0.265 N 
ATOM      8  C   UNL     1      47.328  82.110  40.575  0.00  0.00    +0.335 A 
ATOM      9  O   UNL     1      48.134  82.925  41.154  0.00  0.00    -0.246 OA
ENDROOT
BRANCH   6  10
ATOM     10  N   UNL     1      45.455  79.002  41.180  0.00  0.00    -0.293 N 
ATOM     11  C   UNL     1      44.695  79.205  42.372  0.00  0.00    +0.092 C 
ATOM     12  C   UNL     1      44.982  77.960  43.264  0.00  0.00    +0.023 C 
ATOM     13  C   UNL     1      44.433  76.807  42.426  0.00  0.00    +0.023 C 
ATOM     14  C   UNL     1      45.495  76.527  41.372  0.00  0.00    +0.112 C 
ATOM     15  C   UNL     1      45.678  77.732  40.524  0.00  0.00    +0.111 C 
ATOM     16  N   UNL     1      45.179  75.331  40.609  0.00  0.00    -0.131 NA
ENDBRANCH   6  10
BRANCH   7  17
ATOM     17  C   UNL     1      47.521  80.688  42.434  0.00  0.00    +0.139 C 
BRANCH  17  18
ATOM     18  C   UNL     1      48.844  81.277  42.630  0.00  0.00    +0.010 A 
ATOM     19  C   UNL     1      50.014  80.586  42.392  0.00  0.00    -0.002 A 
ATOM     20  C   UNL     1      51.274  81.148  42.660  0.00  0.00    -0.000 A 
ATOM     21  C   UNL     1      51.340  82.430  43.184  0.00  0.00    +0.001 A 
ATOM     22  C   UNL     1      50.194  83.098  43.407  0.00  0.00    +0.010 A 
ATOM     23  C   UNL     1      48.966  82.564  43.138  0.00  0.00    +0.066 A 
BRANCH  23  24
ATOM     24  C   UNL     1      47.786  83.325  43.383  0.00  0.00    +0.100 C 
ATOM     25  N   UNL     1      46.733  84.019  43.611  0.00  0.00    -0.191 NA
ENDBRANCH  23  24
ENDBRANCH  17  18
ENDBRANCH   7  17
TORSDOF 4
