REMARK  Name = Alogliptin/metformin
REMARK  5 active torsions:
REMARK  status: ('A' for Active; 'I' for Inactive)
REMARK    1  A    between atoms: C_6  and  N_19
REMARK    2  A    between atoms: N_7  and  C_10
REMARK    3  A    between atoms: C_10  and  C_11
REMARK    4  A    between atoms: C_16  and  C_17
REMARK    5  A    between atoms: C_29  and  N_31
REMARK                            x       y       z     vdW  Elec       q    Type
REMARK                         _______ _______ _______ _____ _____    ______ ____
ROOT
ATOM      1  C   UNL     1      47.457  83.595  37.946  0.00  0.00    +0.138 C 
ATOM      2  N   UNL     1      47.097  82.507  38.864  0.00  0.00    -0.247 N 
ATOM      3  C   UNL     1      45.842  82.064  38.959  0.00  0.00    +0.267 A 
ATOM      4  O   UNL     1      44.937  82.594  38.245  0.00  0.00    -0.267 OA
ATOM      5  C   UNL     1      45.535  81.041  39.825  0.00  0.00    +0.093 A 
ATOM      6  C   UNL     1      46.518  80.418  40.645  0.00  0.00    +0.121 A 
ATOM      7  N   UNL     1      47.740  80.924  40.491  0.00  0.00    -0.265 N 
ATOM      8  C   UNL     1      48.023  81.938  39.623  0.00  0.00    +0.335 A 
ATOM      9  O   UNL     1      49.214  82.395  39.496  0.00  0.00    -0.246 OA
ENDROOT
BRANCH   6  10
ATOM     10  N   UNL     1      46.110  79.340  41.436  0.00  0.00    -0.293 N 
ATOM     11  C   UNL     1      44.684  79.262  41.829  0.00  0.00    +0.092 C 
ATOM     12  C   UNL     1      44.006  78.186  41.028  0.00  0.00    +0.023 C 
ATOM     13  C   UNL     1      44.871  76.946  40.931  0.00  0.00    +0.023 C 
ATOM     14  C   UNL     1      45.868  76.978  42.023  0.00  0.00    +0.112 C 
ATOM     15  C   UNL     1      46.832  78.183  41.904  0.00  0.00    +0.111 C 
ATOM     16  N   UNL     1      45.322  76.860  43.352  0.00  0.00    -0.131 NA
ENDBRANCH   6  10
BRANCH   7  17
ATOM     17  C   UNL     1      48.834  80.537  41.318  0.00  0.00    +0.139 C 
BRANCH  17  18
ATOM     18  C   UNL     1      49.293  81.532  42.329  0.00  0.00    +0.010 A 
ATOM     19  C   UNL     1      50.505  82.222  42.128  0.00  0.00    -0.002 A 
ATOM     20  C   UNL     1      51.004  83.146  43.005  0.00  0.00    -0.000 A 
ATOM     21  C   UNL     1      50.304  83.433  44.150  0.00  0.00    +0.001 A 
ATOM     22  C   UNL     1      49.129  82.796  44.395  0.00  0.00    +0.010 A 
ATOM     23  C   UNL     1      48.638  81.852  43.481  0.00  0.00    +0.066 A 
BRANCH  23  24
ATOM     24  C   UNL     1      47.410  81.207  43.848  0.00  0.00    +0.100 C 
ATOM     25  N   UNL     1      46.437  80.675  44.148  0.00  0.00    -0.191 NA
ENDBRANCH  23  24
ENDBRANCH  17  18
ENDBRANCH   7  17
TORSDOF 4
REMARK  Name = Alogliptin/metformin
REMARK  5 active torsions:
REMARK  status: ('A' for Active; 'I' for Inactive)
REMARK    1  A    between atoms: C_6  and  N_19
REMARK    2  A    between atoms: N_7  and  C_10
REMARK    3  A    between atoms: C_10  and  C_11
REMARK    4  A    between atoms: C_16  and  C_17
REMARK    5  A    between atoms: C_29  and  N_31
REMARK                            x       y       z     vdW  Elec       q    Type
REMARK                         _______ _______ _______ _____ _____    ______ ____
ROOT
ATOM      1  C   UNL     1      47.014  83.126  41.525  0.00  0.00    +0.128 C 
ATOM      2  N   UNL     1      47.418  81.779  41.934  0.00  0.00    -0.313 N 
ATOM      3  C   UNL     1      48.772  81.561  42.399  0.00  0.00    +0.128 C 
ATOM      4  C   UNL     1      46.490  80.706  41.874  0.00  0.00    +0.251 C 
ATOM      5  N   UNL     1      45.236  80.962  41.639  0.00  0.00    -0.107 NA
ENDROOT
BRANCH   4   6
ATOM      6  N   UNL     1      46.962  79.382  42.073  0.00  0.00    -0.171 NA
ATOM      7  C   UNL     1      46.843  78.503  41.157  0.00  0.00    +0.291 C 
ATOM      8  N   UNL     1      47.311  77.184  41.348  0.00  0.00    -0.103 NA
ATOM      9  N   UNL     1      46.230  78.864  39.933  0.00  0.00    -0.103 NA
ENDBRANCH   4   6
TORSDOF 1
REMARK  Name = Alogliptin/metformin
REMARK  5 active torsions:
REMARK  status: ('A' for Active; 'I' for Inactive)
REMARK    1  A    between atoms: C_6  and  N_19
REMARK    2  A    between atoms: N_7  and  C_10
REMARK    3  A    between atoms: C_10  and  C_11
REMARK    4  A    between atoms: C_16  and  C_17
REMARK    5  A    between atoms: C_29  and  N_31
REMARK                            x       y       z     vdW  Elec       q    Type
REMARK                         _______ _______ _______ _____ _____    ______ ____
ROOT
ATOM      1 CL   UNL     1      46.996  79.785  41.233  0.00  0.00    +0.000 Cl
ENDROOT
TORSDOF 0
