REMARK  Name = Alosetron
REMARK  2 active torsions:
REMARK  status: ('A' for Active; 'I' for Inactive)
REMARK    1  A    between atoms: C_3  and  C_7
REMARK    2  A    between atoms: C_7  and  N_8
REMARK                            x       y       z     vdW  Elec       q    Type
REMARK                         _______ _______ _______ _____ _____    ______ ____
ROOT
ATOM      1  N   UNL     1      47.163  82.330  40.563  0.00  0.00    -0.270 N 
ATOM      2  C   UNL     1      47.099  82.255  39.120  0.00  0.00    +0.100 C 
ATOM      3  C   UNL     1      45.737  81.821  38.669  0.00  0.00    +0.065 C 
ATOM      4  C   UNL     1      45.372  80.546  39.329  0.00  0.00    +0.043 A 
ATOM      5  C   UNL     1      45.862  80.239  40.567  0.00  0.00    +0.067 A 
ATOM      6  C   UNL     1      46.807  81.145  41.262  0.00  0.00    +0.250 C 
ATOM      7  O   UNL     1      47.260  80.875  42.397  0.00  0.00    -0.270 OA
ATOM      8  C   UNL     1      45.361  79.016  40.974  0.00  0.00    +0.021 A 
ATOM      9  C   UNL     1      45.538  78.255  42.132  0.00  0.00    +0.002 A 
ATOM     10  C   UNL     1      44.878  77.045  42.232  0.00  0.00    +0.000 A 
ATOM     11  C   UNL     1      44.073  76.637  41.190  0.00  0.00    +0.001 A 
ATOM     12  C   UNL     1      43.906  77.393  40.058  0.00  0.00    +0.017 A 
ATOM     13  C   UNL     1      44.556  78.605  39.938  0.00  0.00    +0.060 A 
ATOM     14  N   UNL     1      44.567  79.518  38.962  0.00  0.00    -0.328 N 
ATOM     15  C   UNL     1      43.870  79.503  37.692  0.00  0.00    +0.130 C 
ENDROOT
BRANCH   1  16
ATOM     16  C   UNL     1      47.561  83.516  41.259  0.00  0.00    +0.141 C 
BRANCH  16  19
ATOM     17  C   UNL     1      48.673  85.083  43.648  0.00  0.00    +0.053 C 
ATOM     18  C   UNL     1      49.431  84.046  42.882  0.00  0.00    +0.076 A 
ATOM     19  C   UNL     1      48.924  83.349  41.813  0.00  0.00    +0.094 A 
ATOM     20  N   UNL     1      49.915  82.526  41.419  0.00  0.00    -0.225 NA
ATOM     21  C   UNL     1      50.998  82.686  42.192  0.00  0.00    +0.198 A 
ATOM     22  N   UNL     1      50.697  83.640  43.112  0.00  0.00    -0.227 NA
ENDBRANCH  16  19
ENDBRANCH   1  16
TORSDOF 2
