REMARK  Name = Alpelisib
REMARK  4 active torsions:
REMARK  status: ('A' for Active; 'I' for Inactive)
REMARK    1  A    between atoms: C_3  and  C_18
REMARK    2  A    between atoms: C_14  and  C_15
REMARK    3  A    between atoms: C_20  and  C_24
REMARK    4  A    between atoms: C_24  and  C_27
REMARK                            x       y       z     vdW  Elec       q    Type
REMARK                         _______ _______ _______ _____ _____    ______ ____
ROOT
ATOM      1  C   UNL     1      46.757  83.124  38.685  0.00  0.00    +0.053 C 
ATOM      2  C   UNL     1      46.106  81.821  39.112  0.00  0.00    +0.067 A 
ATOM      3  C   UNL     1      46.560  81.102  40.176  0.00  0.00    +0.046 A 
ATOM      4  S   UNL     1      45.432  79.761  40.147  0.00  0.00    -0.050 S 
ATOM      5  C   UNL     1      44.503  80.231  38.809  0.00  0.00    +0.187 A 
ATOM      6  N   UNL     1      45.081  81.356  38.458  0.00  0.00    -0.227 NA
ATOM      7  N   UNL     1      43.362  79.574  38.196  0.00  0.00    -0.137 NA
ATOM      8  C   UNL     1      42.904  78.342  38.715  0.00  0.00    +0.330 C 
ATOM      9  O   UNL     1      43.539  77.833  39.661  0.00  0.00    -0.250 OA
ATOM     10  N   UNL     1      41.760  77.729  38.157  0.00  0.00    -0.256 N 
ATOM     11  C   UNL     1      40.914  78.354  37.170  0.00  0.00    +0.096 C 
ATOM     12  C   UNL     1      39.955  77.297  36.687  0.00  0.00    +0.024 C 
ATOM     13  C   UNL     1      40.217  76.055  37.504  0.00  0.00    +0.031 C 
ATOM     14  C   UNL     1      41.289  76.415  38.493  0.00  0.00    +0.156 C 
ENDROOT
BRANCH   3  15
ATOM     15  C   UNL     1      47.636  81.259  41.139  0.00  0.00    +0.010 A 
ATOM     16  C   UNL     1      48.061  82.567  41.423  0.00  0.00    +0.016 A 
ATOM     17  C   UNL     1      49.070  82.811  42.317  0.00  0.00    +0.066 A 
ATOM     18  N   UNL     1      49.657  81.781  42.926  0.00  0.00    -0.248 NA
ATOM     19  C   UNL     1      49.279  80.532  42.678  0.00  0.00    +0.098 A 
ATOM     20  C   UNL     1      48.244  80.230  41.766  0.00  0.00    +0.021 A 
BRANCH  17  21
ATOM     21  C   UNL     1      49.457  84.231  42.559  0.00  0.00    +0.123 C 
ATOM     22  C   UNL     1      48.166  85.028  42.617  0.00  0.00    +0.014 C 
ATOM     23  C   UNL     1      50.277  84.703  41.385  0.00  0.00    +0.014 C 
BRANCH  21  24
ATOM     24  C   UNL     1      50.216  84.378  43.860  0.00  0.00    +0.402 C 
ATOM     25  F   UNL     1      50.596  85.684  43.997  0.00  0.00    -0.170 F 
ATOM     26  F   UNL     1      51.337  83.567  43.763  0.00  0.00    -0.170 F 
ATOM     27  F   UNL     1      49.390  84.008  44.897  0.00  0.00    -0.170 F 
ENDBRANCH  21  24
ENDBRANCH  17  21
ENDBRANCH   3  15
BRANCH  14  28
ATOM     28  C   UNL     1      40.797  76.344  39.901  0.00  0.00    +0.279 C 
ATOM     29  O   UNL     1      40.010  77.205  40.319  0.00  0.00    -0.270 OA
ATOM     30  N   UNL     1      41.230  75.296  40.758  0.00  0.00    -0.086 NA
ENDBRANCH  14  28
TORSDOF 4
