REMARK  Name = Alprostadil
REMARK  13 active torsions:
REMARK  status: ('A' for Active; 'I' for Inactive)
REMARK    1  A    between atoms: C_2  and  C_3
REMARK    2  A    between atoms: C_3  and  C_4
REMARK    3  A    between atoms: C_4  and  C_5
REMARK    4  A    between atoms: C_5  and  C_6
REMARK    5  A    between atoms: C_6  and  C_7
REMARK    6  A    between atoms: C_8  and  C_9
REMARK    7  A    between atoms: C_14  and  C_15
REMARK    8  A    between atoms: C_15  and  C_16
REMARK    9  A    between atoms: C_16  and  C_17
REMARK   10  A    between atoms: C_17  and  C_18
REMARK   11  A    between atoms: C_18  and  C_19
REMARK   12  A    between atoms: C_19  and  C_20
REMARK   13  A    between atoms: C_20  and  C_21
REMARK                            x       y       z     vdW  Elec       q    Type
REMARK                         _______ _______ _______ _____ _____    ______ ____
ROOT
ATOM      1  C   UNL     1      44.330  78.744  40.833  0.00  0.00    +0.059 C 
ATOM      2  C   UNL     1      45.018  77.966  41.931  0.00  0.00    +0.164 C 
ATOM      3  C   UNL     1      45.415  76.623  41.294  0.00  0.00    +0.098 C 
ATOM      4  C   UNL     1      44.912  76.805  39.881  0.00  0.00    +0.153 C 
ATOM      5  O   UNL     1      45.452  76.439  38.914  0.00  0.00    -0.296 OA
ATOM      6  C   UNL     1      43.641  77.534  40.105  0.00  0.00    +0.064 C 
ATOM      7  O   UNL     1      44.040  77.766  42.921  0.00  0.00    -0.222 OA
ENDROOT
BRANCH   1   9
ATOM      8  C   UNL     1      45.257  80.692  39.576  0.00  0.00    +0.002 C 
ATOM      9  C   UNL     1      45.245  79.424  39.938  0.00  0.00    -0.026 C 
BRANCH   8  10
ATOM     10  C   UNL     1      46.558  81.419  39.298  0.00  0.00    +0.174 C 
ATOM     11  O   UNL     1      46.412  82.276  38.224  0.00  0.00    -0.218 OA
BRANCH  10  12
ATOM     12  C   UNL     1      46.968  82.072  40.567  0.00  0.00    +0.037 C 
BRANCH  12  13
ATOM     13  C   UNL     1      48.272  82.780  40.565  0.00  0.00    +0.003 C 
BRANCH  13  14
ATOM     14  C   UNL     1      48.718  83.373  41.853  0.00  0.00    +0.000 C 
BRANCH  14  16
ATOM     15  C   UNL     1      50.666  84.628  42.825  0.00  0.00    +0.000 C 
ATOM     16  C   UNL     1      50.129  83.933  41.607  0.00  0.00    +0.000 C 
ENDBRANCH  14  16
ENDBRANCH  13  14
ENDBRANCH  12  13
ENDBRANCH  10  12
ENDBRANCH   8  10
ENDBRANCH   1   9
BRANCH   6  17
ATOM     17  C   UNL     1      42.902  77.999  38.931  0.00  0.00    +0.008 C 
BRANCH  17  18
ATOM     18  C   UNL     1      41.418  77.893  39.033  0.00  0.00    +0.000 C 
BRANCH  18  19
ATOM     19  C   UNL     1      40.603  78.181  37.846  0.00  0.00    +0.000 C 
BRANCH  19  20
ATOM     20  C   UNL     1      40.612  77.029  36.850  0.00  0.00    +0.001 C 
BRANCH  20  21
ATOM     21  C   UNL     1      39.267  76.422  36.750  0.00  0.00    +0.012 C 
BRANCH  21  22
ATOM     22  C   UNL     1      39.222  75.215  35.831  0.00  0.00    +0.114 C 
BRANCH  22  23
ATOM     23  C   UNL     1      37.926  74.559  35.742  0.00  0.00    +0.365 C 
ATOM     24  O   UNL     1      36.937  74.847  36.449  0.00  0.00    -0.246 OA
ATOM     25  O   UNL     1      37.740  73.535  34.818  0.00  0.00    -0.246 OA
ENDBRANCH  22  23
ENDBRANCH  21  22
ENDBRANCH  20  21
ENDBRANCH  19  20
ENDBRANCH  18  19
ENDBRANCH  17  18
ENDBRANCH   6  17
TORSDOF 13
