REMARK  Name = Alprazolam
REMARK  1 active torsions:
REMARK  status: ('A' for Active; 'I' for Inactive)
REMARK    1  A    between atoms: C_14  and  C_17
REMARK                            x       y       z     vdW  Elec       q    Type
REMARK                         _______ _______ _______ _____ _____    ______ ____
ROOT
ATOM      1  C   UNL     1      48.622  81.960  38.263  0.00  0.00    +0.074 C 
ATOM      2  C   UNL     1      47.167  82.052  38.427  0.00  0.00    +0.147 A 
ATOM      3  N   UNL     1      46.236  82.533  37.540  0.00  0.00    -0.133 NA
ATOM      4  N   UNL     1      45.002  82.377  38.038  0.00  0.00    -0.131 NA
ATOM      5  C   UNL     1      45.097  81.811  39.219  0.00  0.00    +0.172 A 
ATOM      6  N   UNL     1      46.440  81.623  39.439  0.00  0.00    -0.279 N 
ATOM      7  C   UNL     1      47.017  81.057  40.629  0.00  0.00    +0.068 A 
ATOM      8  C   UNL     1      46.383  80.040  41.360  0.00  0.00    +0.034 A 
ATOM      9  C   UNL     1      46.972  79.608  42.505  0.00  0.00    +0.014 A 
ATOM     10  C   UNL     1      48.162  80.172  42.899  0.00  0.00    +0.058 A 
ATOM     11  C   UNL     1      48.780  81.185  42.155  0.00  0.00    +0.013 A 
ATOM     12  C   UNL     1      48.191  81.653  40.975  0.00  0.00    +0.019 A 
ATOM     13 CL   UNL     1      48.947  79.631  44.349  0.00  0.00    -0.082 Cl
ATOM     14  C   UNL     1      45.118  79.363  41.059  0.00  0.00    +0.078 C 
ATOM     15  N   UNL     1      44.112  80.015  40.519  0.00  0.00    -0.262 NA
ATOM     16  C   UNL     1      43.986  81.417  40.109  0.00  0.00    +0.191 C 
ENDROOT
BRANCH  14  17
ATOM     17  C   UNL     1      44.995  77.990  41.412  0.00  0.00    +0.017 A 
ATOM     18  C   UNL     1      45.693  77.063  40.614  0.00  0.00    +0.001 A 
ATOM     19  C   UNL     1      45.766  75.733  40.880  0.00  0.00    +0.000 A 
ATOM     20  C   UNL     1      45.123  75.253  41.992  0.00  0.00    +0.000 A 
ATOM     21  C   UNL     1      44.438  76.106  42.793  0.00  0.00    +0.000 A 
ATOM     22  C   UNL     1      44.381  77.465  42.498  0.00  0.00    +0.001 A 
ENDBRANCH  14  17
TORSDOF 1
