REMARK  Name = Alvimopan
REMARK  8 active torsions:
REMARK  status: ('A' for Active; 'I' for Inactive)
REMARK    1  A    between atoms: N_4  and  C_16
REMARK    2  A    between atoms: C_7  and  C_9
REMARK    3  A    between atoms: C_16  and  C_17
REMARK    4  A    between atoms: C_17  and  C_18
REMARK    5  A    between atoms: C_17  and  C_25
REMARK    6  A    between atoms: C_18  and  C_19
REMARK    7  A    between atoms: N_27  and  C_28
REMARK    8  A    between atoms: C_28  and  C_29
REMARK                            x       y       z     vdW  Elec       q    Type
REMARK                         _______ _______ _______ _____ _____    ______ ____
ROOT
ATOM      1  C   UNL     1      45.392  80.115  39.338  0.00  0.00    +0.082 C 
ENDROOT
BRANCH   1   5
ATOM      2  C   UNL     1      48.877  81.271  39.340  0.00  0.00    +0.002 C 
ATOM      3  C   UNL     1      48.020  82.040  40.353  0.00  0.00    +0.020 C 
ATOM      4  C   UNL     1      46.579  82.019  39.989  0.00  0.00    +0.072 C 
ATOM      5  N   UNL     1      45.809  80.906  40.431  0.00  0.00    -0.272 NA
ATOM      6  C   UNL     1      46.331  80.207  41.556  0.00  0.00    +0.072 C 
ATOM      7  C   UNL     1      47.164  81.124  42.454  0.00  0.00    +0.021 C 
ATOM      8  C   UNL     1      48.360  81.671  41.752  0.00  0.00    +0.022 C 
ATOM      9  C   UNL     1      49.459  80.627  41.838  0.00  0.00    +0.004 C 
BRANCH   8  10
ATOM     10  C   UNL     1      48.855  82.827  42.574  0.00  0.00    -0.020 A 
ATOM     11  C   UNL     1      50.186  83.009  42.838  0.00  0.00    +0.038 A 
ATOM     12  C   UNL     1      50.611  84.072  43.598  0.00  0.00    +0.195 A 
ATOM     13  C   UNL     1      49.734  84.997  44.126  0.00  0.00    +0.042 A 
ATOM     14  C   UNL     1      48.394  84.814  43.861  0.00  0.00    +0.003 A 
ATOM     15  C   UNL     1      47.965  83.732  43.088  0.00  0.00    -0.004 A 
ATOM     16  O   UNL     1      51.981  84.244  43.859  0.00  0.00    -0.287 OA
ENDBRANCH   8  10
ENDBRANCH   1   5
BRANCH   1  17
ATOM     17  C   UNL     1      44.192  79.254  39.518  0.00  0.00    +0.098 C 
BRANCH  17  18
ATOM     18  C   UNL     1      43.137  79.447  38.514  0.00  0.00    +0.243 C 
ATOM     19  O   UNL     1      43.226  80.386  37.687  0.00  0.00    -0.273 OA
ATOM     20  N   UNL     1      41.981  78.629  38.398  0.00  0.00    -0.193 NA
BRANCH  20  21
ATOM     21  C   UNL     1      41.049  78.704  37.308  0.00  0.00    +0.228 C 
BRANCH  21  22
ATOM     22  C   UNL     1      39.991  77.694  37.366  0.00  0.00    +0.387 C 
ATOM     23  O   UNL     1      39.142  77.665  36.439  0.00  0.00    -0.244 OA
ATOM     24  O   UNL     1      39.840  76.751  38.371  0.00  0.00    -0.244 OA
ENDBRANCH  21  22
ENDBRANCH  20  21
ENDBRANCH  17  18
BRANCH  17  25
ATOM     25  C   UNL     1      44.645  77.807  39.575  0.00  0.00    +0.037 C 
BRANCH  25  26
ATOM     26  C   UNL     1      44.897  77.343  40.936  0.00  0.00    -0.022 A 
ATOM     27  C   UNL     1      46.123  76.827  41.315  0.00  0.00    -0.004 A 
ATOM     28  C   UNL     1      46.322  76.403  42.631  0.00  0.00    -0.000 A 
ATOM     29  C   UNL     1      45.326  76.483  43.577  0.00  0.00    -0.000 A 
ATOM     30  C   UNL     1      44.105  76.997  43.200  0.00  0.00    -0.000 A 
ATOM     31  C   UNL     1      43.906  77.420  41.889  0.00  0.00    -0.004 A 
ENDBRANCH  25  26
ENDBRANCH  17  25
ENDBRANCH   1  17
TORSDOF 8
