REMARK  Name = Ambenonium
REMARK  15 active torsions:
REMARK  status: ('A' for Active; 'I' for Inactive)
REMARK    1  A    between atoms: C_2  and  N_3
REMARK    2  A    between atoms: N_3  and  C_4
REMARK    3  A    between atoms: N_3  and  C_6
REMARK    4  A    between atoms: N_3  and  C_29
REMARK    5  A    between atoms: C_6  and  C_7
REMARK    6  A    between atoms: C_7  and  N_8
REMARK    7  A    between atoms: C_9  and  C_11
REMARK    8  A    between atoms: N_13  and  C_14
REMARK    9  A    between atoms: C_14  and  C_15
REMARK   10  A    between atoms: C_15  and  N_16
REMARK   11  A    between atoms: N_16  and  C_17
REMARK   12  A    between atoms: N_16  and  C_19
REMARK   13  A    between atoms: N_16  and  C_21
REMARK   14  A    between atoms: C_21  and  C_22
REMARK   15  A    between atoms: C_29  and  C_30
REMARK                            x       y       z     vdW  Elec       q    Type
REMARK                         _______ _______ _______ _____ _____    ______ ____
ROOT
ATOM      1  N   UNL     1      44.968  81.317  40.222  0.00  0.00    -0.200 NA
ATOM      2  C   UNL     1      44.615  80.726  38.955  0.00  0.00    +0.320 C 
ATOM      3  O   UNL     1      44.963  81.390  37.945  0.00  0.00    -0.263 OA
ENDROOT
BRANCH   2   4
ATOM      4  C   UNL     1      43.910  79.457  38.892  0.00  0.00    +0.320 C 
ATOM      5  O   UNL     1      44.324  78.482  39.553  0.00  0.00    -0.263 OA
ATOM      6  N   UNL     1      42.751  79.288  38.093  0.00  0.00    -0.200 NA
BRANCH   6   7
ATOM      7  C   UNL     1      42.143  77.963  37.898  0.00  0.00    +0.094 C 
BRANCH   7   8
ATOM      8  C   UNL     1      40.737  78.194  37.471  0.00  0.00    -0.049 C 
BRANCH   8   9
ATOM      9  N   UNL     1      39.822  77.093  37.853  0.00  0.00    +0.394 N 
BRANCH   9  10
ATOM     10  C   UNL     1      40.488  75.916  37.293  0.00  0.00    -0.073 C 
ATOM     11  C   UNL     1      40.332  75.743  35.831  0.00  0.00    -0.024 C 
ENDBRANCH   9  10
BRANCH   9  12
ATOM     12  C   UNL     1      38.527  77.294  37.324  0.00  0.00    -0.073 C 
ATOM     13  C   UNL     1      37.604  76.099  37.570  0.00  0.00    -0.024 C 
ENDBRANCH   9  12
BRANCH   9  14
ATOM     14  C   UNL     1      39.857  77.063  39.283  0.00  0.00    -0.045 C 
BRANCH  14  15
ATOM     15  C   UNL     1      40.772  76.101  39.915  0.00  0.00    -0.032 A 
ATOM     16  C   UNL     1      40.542  74.740  39.670  0.00  0.00    -0.005 A 
ATOM     17  C   UNL     1      41.337  73.824  40.299  0.00  0.00    -0.000 A 
ATOM     18  C   UNL     1      42.342  74.173  41.154  0.00  0.00    +0.001 A 
ATOM     19  C   UNL     1      42.550  75.510  41.377  0.00  0.00    +0.011 A 
ATOM     20  C   UNL     1      41.767  76.495  40.759  0.00  0.00    +0.052 A 
ATOM     21 CL   UNL     1      42.181  78.198  41.054  0.00  0.00    -0.083 Cl
ENDBRANCH  14  15
ENDBRANCH   9  14
ENDBRANCH   8   9
ENDBRANCH   7   8
ENDBRANCH   6   7
ENDBRANCH   2   4
BRANCH   1  22
ATOM     22  C   UNL     1      46.192  81.052  40.916  0.00  0.00    +0.094 C 
BRANCH  22  23
ATOM     23  C   UNL     1      47.422  81.752  40.559  0.00  0.00    -0.049 C 
BRANCH  23  24
ATOM     24  N   UNL     1      48.484  81.930  41.476  0.00  0.00    +0.394 N 
BRANCH  24  26
ATOM     25  C   UNL     1      46.569  82.024  43.080  0.00  0.00    -0.024 C 
ATOM     26  C   UNL     1      48.001  81.693  42.826  0.00  0.00    -0.073 C 
ENDBRANCH  24  26
BRANCH  24  27
ATOM     27  C   UNL     1      49.621  81.070  41.249  0.00  0.00    -0.073 C 
ATOM     28  C   UNL     1      50.308  81.205  39.945  0.00  0.00    -0.024 C 
ENDBRANCH  24  27
BRANCH  24  29
ATOM     29  C   UNL     1      48.854  83.353  41.477  0.00  0.00    -0.045 C 
BRANCH  29  30
ATOM     30  C   UNL     1      49.623  83.861  42.575  0.00  0.00    -0.032 A 
ATOM     31  C   UNL     1      50.976  83.496  42.644  0.00  0.00    -0.005 A 
ATOM     32  C   UNL     1      51.787  83.991  43.635  0.00  0.00    -0.000 A 
ATOM     33  C   UNL     1      51.331  84.857  44.601  0.00  0.00    +0.001 A 
ATOM     34  C   UNL     1      50.000  85.224  44.547  0.00  0.00    +0.011 A 
ATOM     35  C   UNL     1      49.181  84.716  43.537  0.00  0.00    +0.052 A 
ATOM     36 CL   UNL     1      47.489  85.206  43.677  0.00  0.00    -0.083 Cl
ENDBRANCH  29  30
ENDBRANCH  24  29
ENDBRANCH  23  24
ENDBRANCH  22  23
ENDBRANCH   1  22
TORSDOF 15
