REMARK  Name = Amcinonide
REMARK  4 active torsions:
REMARK  status: ('A' for Active; 'I' for Inactive)
REMARK    1  A    between atoms: C_2  and  O_4
REMARK    2  A    between atoms: O_4  and  C_5
REMARK    3  A    between atoms: C_5  and  C_6
REMARK    4  A    between atoms: C_6  and  C_8
REMARK                            x       y       z     vdW  Elec       q    Type
REMARK                         _______ _______ _______ _____ _____    ______ ____
ROOT
ATOM      1  C   UNL     1      45.059  80.119  39.937  0.00  0.00    +0.174 C 
ATOM      2  C   UNL     1      44.309  80.207  41.200  0.00  0.00    +0.149 C 
ATOM      3  C   UNL     1      45.386  80.609  42.210  0.00  0.00    +0.033 C 
ATOM      4  C   UNL     1      46.580  81.054  41.476  0.00  0.00    +0.008 C 
ATOM      5  C   UNL     1      46.072  81.236  40.059  0.00  0.00    +0.034 C 
ATOM      6  C   UNL     1      47.164  81.058  39.065  0.00  0.00    +0.038 C 
ATOM      7  C   UNL     1      48.381  81.801  39.634  0.00  0.00    +0.182 C 
ATOM      8  C   UNL     1      48.912  80.993  40.794  0.00  0.00    +0.168 C 
ATOM      9  C   UNL     1      47.799  80.221  41.515  0.00  0.00    +0.034 C 
ATOM     10  C   UNL     1      48.250  79.865  42.911  0.00  0.00    +0.007 C 
ATOM     11  C   UNL     1      48.498  81.049  43.799  0.00  0.00    +0.023 C 
ATOM     12  C   UNL     1      49.065  82.150  42.984  0.00  0.00    -0.035 C 
ATOM     13  C   UNL     1      48.911  83.388  43.424  0.00  0.00    +0.034 C 
ATOM     14  C   UNL     1      49.449  84.504  42.657  0.00  0.00    +0.195 C 
ATOM     15  O   UNL     1      49.304  85.679  43.074  0.00  0.00    -0.287 OA
ATOM     16  C   UNL     1      50.144  84.221  41.424  0.00  0.00    +0.038 C 
ATOM     17  C   UNL     1      50.270  82.988  41.033  0.00  0.00    -0.017 C 
ATOM     18  C   UNL     1      49.759  81.794  41.747  0.00  0.00    +0.064 C 
ATOM     19  C   UNL     1      51.006  80.999  42.163  0.00  0.00    +0.011 C 
ATOM     20  F   UNL     1      49.789  80.060  40.216  0.00  0.00    -0.237 F 
ATOM     21  O   UNL     1      47.954  83.058  39.977  0.00  0.00    -0.220 OA
ATOM     22  C   UNL     1      45.388  82.562  40.025  0.00  0.00    +0.003 C 
ATOM     23  O   UNL     1      43.969  78.897  41.499  0.00  0.00    -0.334 OA
ATOM     24  C   UNL     1      44.852  78.086  40.805  0.00  0.00    +0.187 C 
ATOM     25  O   UNL     1      45.691  78.866  40.053  0.00  0.00    -0.330 OA
ATOM     26  C   UNL     1      44.009  77.114  39.998  0.00  0.00    +0.056 C 
ATOM     27  C   UNL     1      43.643  76.084  41.070  0.00  0.00    +0.005 C 
ATOM     28  C   UNL     1      45.027  75.802  41.647  0.00  0.00    +0.005 C 
ATOM     29  C   UNL     1      45.653  77.172  41.722  0.00  0.00    +0.056 C 
ENDROOT
BRANCH   1  30
ATOM     30  C   UNL     1      44.315  80.114  38.677  0.00  0.00    +0.221 C 
ATOM     31  O   UNL     1      44.984  80.255  37.644  0.00  0.00    -0.290 OA
BRANCH  30  32
ATOM     32  C   UNL     1      42.867  79.961  38.467  0.00  0.00    +0.275 C 
BRANCH  32  33
ATOM     33  O   UNL     1      42.596  78.857  37.611  0.00  0.00    -0.440 OA
BRANCH  33  35
ATOM     34  C   UNL     1      41.007  77.284  36.408  0.00  0.00    +0.121 C 
ATOM     35  C   UNL     1      41.320  78.423  37.307  0.00  0.00    +0.318 C 
ATOM     36  O   UNL     1      40.353  79.031  37.825  0.00  0.00    -0.250 OA
ENDBRANCH  33  35
ENDBRANCH  32  33
ENDBRANCH  30  32
ENDBRANCH   1  30
TORSDOF 4
