REMARK  Name = Amdinocillin
REMARK  2 active torsions:
REMARK  status: ('A' for Active; 'I' for Inactive)
REMARK    1  A    between atoms: CA_3  and  C_19
REMARK    2  A    between atoms: CA_7  and  N_10
REMARK                            x       y       z     vdW  Elec       q    Type
REMARK                         _______ _______ _______ _____ _____    ______ ____
ROOT
ATOM      1  C   UNL     1      44.691  76.602  40.214  0.00  0.00    +0.013 C 
ATOM      2  C   UNL     1      44.543  78.103  40.392  0.00  0.00    +0.068 C 
ATOM      3  CA  UNL     1      44.573  78.791  39.079  0.00  0.00    +0.189 C 
ATOM      4  N   UNL     1      45.294  79.981  39.144  0.00  0.00    -0.259 N 
ATOM      5  C   UNL     1      46.429  79.961  40.058  0.00  0.00    +0.155 C 
ATOM      6  S   UNL     1      45.999  78.716  41.280  0.00  0.00    -0.118 S 
ATOM      7  CA  UNL     1      46.052  81.375  40.349  0.00  0.00    +0.209 C 
ATOM      8  C   UNL     1      45.682  81.313  38.886  0.00  0.00    +0.252 C 
ATOM      9  O   UNL     1      45.705  82.079  37.901  0.00  0.00    -0.273 OA
ATOM     10  C   UNL     1      43.332  78.421  41.228  0.00  0.00    +0.013 C 
ENDROOT
BRANCH   7  11
ATOM     11  N   UNL     1      47.107  82.282  40.654  0.00  0.00    -0.244 NA
ATOM     12  C   UNL     1      47.325  82.581  41.886  0.00  0.00    +0.159 C 
ATOM     13  N   UNL     1      48.566  83.163  42.230  0.00  0.00    -0.291 N 
ATOM     14  C   UNL     1      49.501  83.293  41.127  0.00  0.00    +0.092 C 
ATOM     15  C   UNL     1      50.891  83.078  41.694  0.00  0.00    +0.021 C 
ATOM     16  C   UNL     1      51.509  84.358  42.190  0.00  0.00    +0.002 C 
ATOM     17  C   UNL     1      50.962  84.796  43.518  0.00  0.00    +0.002 C 
ATOM     18  C   UNL     1      49.478  84.923  43.557  0.00  0.00    +0.021 C 
ATOM     19  C   UNL     1      48.796  83.567  43.601  0.00  0.00    +0.092 C 
ENDBRANCH   7  11
BRANCH   3  20
ATOM     20  C   UNL     1      43.188  78.927  38.556  0.00  0.00    +0.383 C 
ATOM     21  O   UNL     1      42.714  77.937  37.942  0.00  0.00    -0.244 OA
ATOM     22  OXT UNL     1      42.417  80.038  38.700  0.00  0.00    -0.244 OA
ENDBRANCH   3  20
TORSDOF 2
