REMARK  Name = Amezinium
REMARK  2 active torsions:
REMARK  status: ('A' for Active; 'I' for Inactive)
REMARK    1  A    between atoms: O_2  and  C_3
REMARK    2  A    between atoms: N_4  and  C_10
REMARK                            x       y       z     vdW  Elec       q    Type
REMARK                         _______ _______ _______ _____ _____    ______ ____
ROOT
ATOM      1  C   UNL     1      44.644  79.995  39.350  0.00  0.00    +0.227 A 
ATOM      2  N   UNL     1      45.430  79.561  40.362  0.00  0.00    -0.198 N 
ATOM      3  N   UNL     1      46.452  80.329  40.709  0.00  0.00    -0.160 NA
ATOM      4  C   UNL     1      46.736  81.488  40.117  0.00  0.00    +0.139 A 
ATOM      5  C   UNL     1      45.964  81.969  39.084  0.00  0.00    +0.115 A 
ATOM      6  C   UNL     1      44.884  81.186  38.697  0.00  0.00    +0.077 A 
ATOM      7  N   UNL     1      46.271  83.202  38.459  0.00  0.00    -0.126 NA
ENDROOT
BRANCH   2   8
ATOM      8  C   UNL     1      45.176  78.329  41.034  0.00  0.00    +0.086 A 
ATOM      9  C   UNL     1      44.440  78.285  42.199  0.00  0.00    +0.019 A 
ATOM     10  C   UNL     1      44.187  77.090  42.863  0.00  0.00    +0.002 A 
ATOM     11  C   UNL     1      44.671  75.898  42.368  0.00  0.00    +0.000 A 
ATOM     12  C   UNL     1      45.406  75.948  41.202  0.00  0.00    +0.002 A 
ATOM     13  C   UNL     1      45.663  77.140  40.533  0.00  0.00    +0.019 A 
ENDBRANCH   2   8
BRANCH   1  15
ATOM     14  C   UNL     1      42.837  79.447  37.779  0.00  0.00    +0.254 C 
ATOM     15  O   UNL     1      43.568  79.240  38.946  0.00  0.00    -0.456 OA
ENDBRANCH   1  15
TORSDOF 2
