REMARK  Name = Amifostine
REMARK  7 active torsions:
REMARK  status: ('A' for Active; 'I' for Inactive)
REMARK    1  A    between atoms: C_1  and  C_2
REMARK    2  A    between atoms: C_1  and  C_4
REMARK    3  A    between atoms: C_4  and  N_5
REMARK    4  A    between atoms: N_5  and  C_6
REMARK    5  A    between atoms: C_6  and  C_7
REMARK    6  A    between atoms: C_7  and  S_8
REMARK    7  A    between atoms: S_8  and  P_9
REMARK                            x       y       z     vdW  Elec       q    Type
REMARK                         _______ _______ _______ _____ _____    ______ ____
ROOT
ATOM      1  C   UNL     1      47.546  81.392  41.469  0.00  0.00    +0.101 C 
ENDROOT
BRANCH   1   2
ATOM      2  N   UNL     1      48.895  81.177  41.752  0.00  0.00    -0.217 NA
BRANCH   2   3
ATOM      3  C   UNL     1      49.883  82.119  41.425  0.00  0.00    +0.090 C 
BRANCH   3   4
ATOM      4  C   UNL     1      49.713  83.407  42.248  0.00  0.00    +0.039 C 
BRANCH   4   5
ATOM      5  C   UNL     1      50.889  83.433  43.200  0.00  0.00    +0.111 C 
ATOM      6  N   UNL     1      50.878  84.551  44.092  0.00  0.00    -0.131 NA
ENDBRANCH   4   5
ENDBRANCH   3   4
ENDBRANCH   2   3
ENDBRANCH   1   2
BRANCH   1   7
ATOM      7  C   UNL     1      46.787  80.122  41.226  0.00  0.00    +0.088 C 
BRANCH   7   8
ATOM      8  S   UNL     1      45.041  80.358  40.870  0.00  0.00    -0.025 S 
BRANCH   8   9
ATOM      9  P   UNL     1      44.820  80.397  38.756  0.00  0.00    +0.445 P 
ATOM     10  O   UNL     1      45.656  79.225  38.222  0.00  0.00    -0.241 OA
ATOM     11  O   UNL     1      45.358  81.866  38.127  0.00  0.00    -0.130 OA
ATOM     12  O   UNL     1      43.194  80.097  38.411  0.00  0.00    -0.130 OA
ENDBRANCH   8   9
ENDBRANCH   7   8
ENDBRANCH   1   7
TORSDOF 7
