REMARK  Name = Aminophylline
REMARK  1 active torsions:
REMARK  status: ('A' for Active; 'I' for Inactive)
REMARK    1  A    between atoms: C_27  and  C_28
REMARK                            x       y       z     vdW  Elec       q    Type
REMARK                         _______ _______ _______ _____ _____    ______ ____
ROOT
ATOM      1  C   UNL     1      46.125  78.167  41.773  0.00  0.00    +0.137 C 
ATOM      2  N   UNL     1      46.044  79.319  40.885  0.00  0.00    -0.263 N 
ATOM      3  C   UNL     1      45.160  79.346  39.865  0.00  0.00    +0.172 A 
ATOM      4  C   UNL     1      45.047  80.410  39.002  0.00  0.00    +0.173 A 
ATOM      5  C   UNL     1      45.900  81.492  39.222  0.00  0.00    +0.285 A 
ATOM      6  O   UNL     1      45.832  82.493  38.455  0.00  0.00    -0.265 OA
ATOM      7  N   UNL     1      46.774  81.465  40.232  0.00  0.00    -0.245 N 
ATOM      8  C   UNL     1      46.837  80.393  41.043  0.00  0.00    +0.335 A 
ATOM      9  O   UNL     1      47.659  80.403  41.968  0.00  0.00    -0.246 OA
ATOM     10  C   UNL     1      47.635  82.624  40.408  0.00  0.00    +0.138 C 
ATOM     11  N   UNL     1      44.095  80.186  38.077  0.00  0.00    -0.216 NA
ATOM     12  C   UNL     1      43.606  78.966  38.366  0.00  0.00    +0.200 A 
ATOM     13  N   UNL     1      44.235  78.447  39.437  0.00  0.00    -0.205 NA
ENDROOT
TORSDOF 0
REMARK  Name = Aminophylline
REMARK  1 active torsions:
REMARK  status: ('A' for Active; 'I' for Inactive)
REMARK    1  A    between atoms: C_27  and  C_28
REMARK                            x       y       z     vdW  Elec       q    Type
REMARK                         _______ _______ _______ _____ _____    ______ ____
ROOT
ATOM      1  C   UNL     1      47.722  79.776  41.906  0.00  0.00    +0.137 C 
ATOM      2  N   UNL     1      46.661  79.988  40.956  0.00  0.00    -0.263 N 
ATOM      3  C   UNL     1      46.744  81.041  40.124  0.00  0.00    +0.172 A 
ATOM      4  C   UNL     1      45.749  81.302  39.182  0.00  0.00    +0.173 A 
ATOM      5  C   UNL     1      44.672  80.440  39.128  0.00  0.00    +0.285 A 
ATOM      6  O   UNL     1      43.768  80.677  38.272  0.00  0.00    -0.265 OA
ATOM      7  N   UNL     1      44.606  79.386  39.972  0.00  0.00    -0.245 N 
ATOM      8  C   UNL     1      45.584  79.165  40.870  0.00  0.00    +0.335 A 
ATOM      9  O   UNL     1      45.507  78.172  41.654  0.00  0.00    -0.246 OA
ATOM     10  C   UNL     1      43.465  78.487  39.905  0.00  0.00    +0.138 C 
ATOM     11  N   UNL     1      46.133  82.404  38.528  0.00  0.00    -0.216 NA
ATOM     12  C   UNL     1      47.310  82.823  39.029  0.00  0.00    +0.200 A 
ATOM     13  N   UNL     1      47.705  81.998  40.013  0.00  0.00    -0.205 NA
ENDROOT
TORSDOF 0
REMARK  Name = Aminophylline
REMARK  1 active torsions:
REMARK  status: ('A' for Active; 'I' for Inactive)
REMARK    1  A    between atoms: C_27  and  C_28
REMARK                            x       y       z     vdW  Elec       q    Type
REMARK                         _______ _______ _______ _____ _____    ______ ____
ROOT
ATOM      1  C   UNL     1      45.044  80.304  40.298  0.00  0.00    +0.130 C 
ATOM      2  N   UNL     1      44.598  78.904  40.283  0.00  0.00    -0.130 NA
ENDROOT
BRANCH   1   3
ATOM      3  C   UNL     1      46.529  80.244  39.983  0.00  0.00    +0.130 C 
ATOM      4  N   UNL     1      47.294  81.237  40.655  0.00  0.00    -0.130 NA
ENDBRANCH   1   3
TORSDOF 1
