REMARK  Name = Aminoglutethimide
REMARK  2 active torsions:
REMARK  status: ('A' for Active; 'I' for Inactive)
REMARK    1  A    between atoms: C_2  and  C_3
REMARK    2  A    between atoms: C_3  and  C_11
REMARK                            x       y       z     vdW  Elec       q    Type
REMARK                         _______ _______ _______ _____ _____    ______ ____
ROOT
ATOM      1  C   UNL     1      46.120  80.926  40.238  0.00  0.00    +0.090 C 
ATOM      2  C   UNL     1      45.880  81.679  41.512  0.00  0.00    +0.022 C 
ATOM      3  C   UNL     1      47.036  82.576  41.796  0.00  0.00    +0.088 C 
ATOM      4  C   UNL     1      47.657  83.200  40.624  0.00  0.00    +0.248 C 
ATOM      5  O   UNL     1      48.547  84.055  40.774  0.00  0.00    -0.273 OA
ATOM      6  N   UNL     1      47.285  82.871  39.274  0.00  0.00    -0.145 NA
ATOM      7  C   UNL     1      46.253  81.876  39.103  0.00  0.00    +0.251 C 
ATOM      8  O   UNL     1      45.556  81.861  38.062  0.00  0.00    -0.273 OA
ENDROOT
BRANCH   1   9
ATOM      9  C   UNL     1      45.089  79.938  39.899  0.00  0.00    -0.014 A 
ATOM     10  C   UNL     1      45.139  78.710  40.525  0.00  0.00    -0.002 A 
ATOM     11  C   UNL     1      44.238  77.716  40.280  0.00  0.00    +0.018 A 
ATOM     12  C   UNL     1      43.229  77.934  39.370  0.00  0.00    +0.089 A 
ATOM     13  C   UNL     1      43.176  79.159  38.743  0.00  0.00    +0.018 A 
ATOM     14  C   UNL     1      44.082  80.165  38.986  0.00  0.00    -0.002 A 
ATOM     15  N   UNL     1      42.311  76.892  39.135  0.00  0.00    -0.128 NA
ENDBRANCH   1   9
BRANCH   1  17
ATOM     16  C   UNL     1      47.907  79.859  38.946  0.00  0.00    +0.001 C 
ATOM     17  C   UNL     1      47.436  80.138  40.346  0.00  0.00    +0.013 C 
ENDBRANCH   1  17
TORSDOF 2
