REMARK  Name = Amiodarone
REMARK  11 active torsions:
REMARK  status: ('A' for Active; 'I' for Inactive)
REMARK    1  A    between atoms: C_2  and  C_3
REMARK    2  A    between atoms: C_3  and  C_4
REMARK    3  A    between atoms: C_4  and  C_5
REMARK    4  A    between atoms: C_6  and  C_14
REMARK    5  A    between atoms: C_14  and  C_16
REMARK    6  A    between atoms: C_19  and  O_23
REMARK    7  A    between atoms: O_23  and  C_24
REMARK    8  A    between atoms: C_24  and  C_25
REMARK    9  A    between atoms: C_25  and  N_26
REMARK   10  A    between atoms: N_26  and  C_27
REMARK   11  A    between atoms: N_26  and  C_29
REMARK                            x       y       z     vdW  Elec       q    Type
REMARK                         _______ _______ _______ _____ _____    ______ ____
ROOT
ATOM      1  C   UNL     1      45.760  80.735  40.204  0.00  0.00    +0.040 A 
ATOM      2  C   UNL     1      45.722  79.838  41.244  0.00  0.00    +0.012 A 
ATOM      3  C   UNL     1      44.807  78.823  41.247  0.00  0.00    +0.064 A 
ATOM      4  C   UNL     1      43.877  78.653  40.202  0.00  0.00    +0.149 A 
ATOM      5  C   UNL     1      43.918  79.534  39.179  0.00  0.00    +0.064 A 
ATOM      6  C   UNL     1      44.864  80.560  39.206  0.00  0.00    +0.012 A 
ATOM      7  I   UNL     1      42.664  79.368  37.473  0.00  0.00    -0.039 I 
ATOM      8  I   UNL     1      44.769  77.451  42.844  0.00  0.00    -0.039 I 
ENDROOT
BRANCH   1   9
ATOM      9  C   UNL     1      46.707  81.851  40.126  0.00  0.00    +0.198 C 
ATOM     10  O   UNL     1      46.495  82.702  39.187  0.00  0.00    -0.286 OA
BRANCH   9  12
ATOM     11  C   UNL     1      48.966  81.306  41.094  0.00  0.00    +0.126 A 
ATOM     12  C   UNL     1      47.828  82.084  40.990  0.00  0.00    +0.072 A 
ATOM     13  C   UNL     1      48.036  83.118  41.909  0.00  0.00    +0.040 A 
ATOM     14  C   UNL     1      47.307  84.199  42.303  0.00  0.00    +0.003 A 
ATOM     15  C   UNL     1      47.761  85.101  43.275  0.00  0.00    +0.000 A 
ATOM     16  C   UNL     1      48.983  84.903  43.860  0.00  0.00    +0.003 A 
ATOM     17  C   UNL     1      49.736  83.819  43.481  0.00  0.00    +0.037 A 
ATOM     18  C   UNL     1      49.277  82.927  42.517  0.00  0.00    +0.145 A 
ATOM     19  O   UNL     1      49.791  81.842  42.003  0.00  0.00    -0.458 OA
BRANCH  11  20
ATOM     20  C   UNL     1      49.287  80.059  40.352  0.00  0.00    +0.065 C 
BRANCH  20  21
ATOM     21  C   UNL     1      49.642  78.895  41.217  0.00  0.00    +0.008 C 
BRANCH  21  23
ATOM     22  C   UNL     1      50.819  76.775  40.582  0.00  0.00    +0.000 C 
ATOM     23  C   UNL     1      50.961  78.268  40.766  0.00  0.00    +0.000 C 
ENDBRANCH  21  23
ENDBRANCH  20  21
ENDBRANCH  11  20
ENDBRANCH   9  12
ENDBRANCH   1   9
BRANCH   4  24
ATOM     24  O   UNL     1      42.987  77.603  40.277  0.00  0.00    -0.473 OA
BRANCH  24  25
ATOM     25  C   UNL     1      42.073  77.167  39.355  0.00  0.00    +0.223 C 
BRANCH  25  26
ATOM     26  C   UNL     1      41.102  76.105  39.609  0.00  0.00    +0.120 C 
BRANCH  26  27
ATOM     27  N   UNL     1      40.159  75.764  38.608  0.00  0.00    -0.270 NA
BRANCH  27  28
ATOM     28  C   UNL     1      39.329  76.845  38.174  0.00  0.00    +0.072 C 
ATOM     29  C   UNL     1      38.082  76.304  37.536  0.00  0.00    +0.019 C 
ENDBRANCH  27  28
BRANCH  27  30
ATOM     30  C   UNL     1      40.722  74.998  37.545  0.00  0.00    +0.072 C 
ATOM     31  C   UNL     1      40.596  73.530  37.847  0.00  0.00    +0.019 C 
ENDBRANCH  27  30
ENDBRANCH  26  27
ENDBRANCH  25  26
ENDBRANCH  24  25
ENDBRANCH   4  24
TORSDOF 11
