REMARK  Name = Amisulpride
REMARK  7 active torsions:
REMARK  status: ('A' for Active; 'I' for Inactive)
REMARK    1  A    between atoms: C_2  and  N_3
REMARK    2  A    between atoms: C_7  and  C_8
REMARK    3  A    between atoms: C_8  and  N_9
REMARK    4  A    between atoms: C_10  and  C_12
REMARK    5  A    between atoms: C_14  and  S_21
REMARK    6  A    between atoms: C_17  and  O_18
REMARK    7  A    between atoms: S_21  and  C_24
REMARK                            x       y       z     vdW  Elec       q    Type
REMARK                         _______ _______ _______ _____ _____    ______ ____
ROOT
ATOM      1  C   UNL     1      46.069  80.365  41.065  0.00  0.00    +0.090 A 
ATOM      2  C   UNL     1      47.156  80.953  41.754  0.00  0.00    +0.027 A 
ATOM      3  C   UNL     1      47.797  82.082  41.328  0.00  0.00    +0.123 A 
ATOM      4  C   UNL     1      47.344  82.662  40.162  0.00  0.00    +0.109 A 
ATOM      5  C   UNL     1      46.289  82.117  39.465  0.00  0.00    +0.056 A 
ATOM      6  C   UNL     1      45.634  80.951  39.914  0.00  0.00    +0.145 A 
ATOM      7  N   UNL     1      47.974  83.837  39.678  0.00  0.00    -0.127 NA
ENDROOT
BRANCH   1   9
ATOM      8  N   UNL     1      44.269  78.576  41.234  0.00  0.00    -0.200 NA
ATOM      9  C   UNL     1      45.471  79.165  41.616  0.00  0.00    +0.268 C 
ATOM     10  O   UNL     1      46.088  78.539  42.570  0.00  0.00    -0.268 OA
BRANCH   8  11
ATOM     11  C   UNL     1      43.551  77.631  42.119  0.00  0.00    +0.131 C 
BRANCH  11  16
ATOM     12  N   UNL     1      43.286  76.680  39.874  0.00  0.00    -0.272 NA
ATOM     13  C   UNL     1      43.071  75.366  39.312  0.00  0.00    +0.072 C 
ATOM     14  C   UNL     1      44.071  74.565  40.158  0.00  0.00    +0.019 C 
ATOM     15  C   UNL     1      44.094  75.270  41.497  0.00  0.00    +0.019 C 
ATOM     16  C   UNL     1      43.170  76.445  41.273  0.00  0.00    +0.079 C 
BRANCH  12  18
ATOM     17  C   UNL     1      40.936  77.309  39.535  0.00  0.00    +0.019 C 
ATOM     18  C   UNL     1      42.386  77.673  39.352  0.00  0.00    +0.072 C 
ENDBRANCH  12  18
ENDBRANCH  11  16
ENDBRANCH   8  11
ENDBRANCH   1   9
BRANCH   3  19
ATOM     19  S   UNL     1      49.133  82.741  42.242  0.00  0.00    +0.010 S 
ATOM     20  O   UNL     1      50.070  83.514  41.365  0.00  0.00    -0.169 OA
ATOM     21  O   UNL     1      49.925  81.597  42.818  0.00  0.00    -0.169 OA
BRANCH  19  22
ATOM     22  C   UNL     1      48.569  83.715  43.614  0.00  0.00    +0.156 C 
ATOM     23  C   UNL     1      49.121  85.105  43.559  0.00  0.00    +0.028 C 
ENDBRANCH  19  22
ENDBRANCH   3  19
BRANCH   6  24
ATOM     24  O   UNL     1      44.584  80.439  39.185  0.00  0.00    -0.471 OA
ATOM     25  C   UNL     1      44.124  81.142  38.054  0.00  0.00    +0.252 C 
ENDBRANCH   6  24
TORSDOF 7
