REMARK  Name = Amlexanox
REMARK  2 active torsions:
REMARK  status: ('A' for Active; 'I' for Inactive)
REMARK    1  A    between atoms: C_2  and  C_4
REMARK    2  A    between atoms: C_14  and  C_19
REMARK                            x       y       z     vdW  Elec       q    Type
REMARK                         _______ _______ _______ _____ _____    ______ ____
ROOT
ATOM      1  C   UNL     1      41.452  76.778  38.935  0.00  0.00    -0.022 A 
ATOM      2  C   UNL     1      42.541  77.167  39.671  0.00  0.00    +0.002 A 
ATOM      3  C   UNL     1      43.247  78.334  39.393  0.00  0.00    +0.073 A 
ATOM      4  C   UNL     1      42.820  79.112  38.337  0.00  0.00    +0.150 A 
ATOM      5  C   UNL     1      41.713  78.753  37.559  0.00  0.00    +0.037 A 
ATOM      6  C   UNL     1      41.060  77.585  37.889  0.00  0.00    -0.001 A 
ATOM      7  O   UNL     1      43.476  80.213  38.065  0.00  0.00    -0.436 OA
ATOM      8  C   UNL     1      44.531  80.587  38.780  0.00  0.00    +0.234 A 
ATOM      9  N   UNL     1      45.195  81.729  38.482  0.00  0.00    -0.193 NA
ATOM     10  C   UNL     1      46.266  82.121  39.198  0.00  0.00    +0.179 A 
ATOM     11  C   UNL     1      46.752  81.399  40.266  0.00  0.00    +0.115 A 
ATOM     12  C   UNL     1      46.107  80.233  40.602  0.00  0.00    +0.017 A 
ATOM     13  C   UNL     1      45.000  79.848  39.845  0.00  0.00    +0.093 A 
ATOM     14  C   UNL     1      44.338  78.689  40.159  0.00  0.00    +0.203 A 
ATOM     15  O   UNL     1      44.739  77.989  41.126  0.00  0.00    -0.286 OA
ATOM     16  N   UNL     1      46.974  83.335  38.883  0.00  0.00    -0.107 NA
ENDROOT
BRANCH   1  18
ATOM     17  C   UNL     1      40.871  74.525  38.134  0.00  0.00    +0.005 C 
ATOM     18  C   UNL     1      40.721  75.527  39.259  0.00  0.00    +0.022 C 
ATOM     19  C   UNL     1      39.269  75.862  39.509  0.00  0.00    +0.005 C 
ENDBRANCH   1  18
BRANCH  11  20
ATOM     20  C   UNL     1      47.922  81.871  41.012  0.00  0.00    +0.391 C 
ATOM     21  O   UNL     1      48.367  81.242  41.997  0.00  0.00    -0.240 OA
ATOM     22  O   UNL     1      48.590  83.037  40.660  0.00  0.00    -0.240 OA
ENDBRANCH  11  20
TORSDOF 2
