REMARK  Name = Amobarbital
REMARK  4 active torsions:
REMARK  status: ('A' for Active; 'I' for Inactive)
REMARK    1  A    between atoms: C_2  and  C_3
REMARK    2  A    between atoms: C_3  and  C_12
REMARK    3  A    between atoms: C_12  and  C_13
REMARK    4  A    between atoms: C_13  and  C_14
REMARK                            x       y       z     vdW  Elec       q    Type
REMARK                         _______ _______ _______ _____ _____    ______ ____
ROOT
ATOM      1  C   UNL     1      47.536  81.413  41.098  0.00  0.00    +0.141 C 
ATOM      2  C   UNL     1      46.173  81.990  41.007  0.00  0.00    +0.257 C 
ATOM      3  O   UNL     1      45.321  81.972  41.932  0.00  0.00    -0.272 OA
ATOM      4  N   UNL     1      45.831  82.604  39.763  0.00  0.00    -0.125 NA
ATOM      5  C   UNL     1      46.377  82.106  38.521  0.00  0.00    +0.352 C 
ATOM      6  O   UNL     1      46.097  82.620  37.420  0.00  0.00    -0.248 OA
ATOM      7  N   UNL     1      47.258  80.985  38.665  0.00  0.00    -0.125 NA
ATOM      8  C   UNL     1      47.554  80.428  39.935  0.00  0.00    +0.257 C 
ATOM      9  O   UNL     1      47.811  79.222  40.095  0.00  0.00    -0.272 OA
ENDROOT
BRANCH   1  11
ATOM     10  C   UNL     1      46.879  79.479  42.519  0.00  0.00    +0.001 C 
ATOM     11  C   UNL     1      47.784  80.641  42.344  0.00  0.00    +0.018 C 
ENDBRANCH   1  11
BRANCH   1  12
ATOM     12  C   UNL     1      48.566  82.433  40.810  0.00  0.00    +0.018 C 
BRANCH  12  13
ATOM     13  C   UNL     1      48.591  83.686  41.583  0.00  0.00    +0.001 C 
BRANCH  13  14
ATOM     14  C   UNL     1      49.273  83.709  42.895  0.00  0.00    +0.000 C 
ATOM     15  C   UNL     1      50.772  83.949  42.579  0.00  0.00    +0.000 C 
ATOM     16  C   UNL     1      48.857  84.826  43.795  0.00  0.00    +0.000 C 
ENDBRANCH  13  14
ENDBRANCH  12  13
ENDBRANCH   1  12
TORSDOF 4
