REMARK  Name = Amodiaquine
REMARK  6 active torsions:
REMARK  status: ('A' for Active; 'I' for Inactive)
REMARK    1  A    between atoms: C_2  and  N_3
REMARK    2  A    between atoms: N_3  and  C_4
REMARK    3  A    between atoms: N_3  and  C_6
REMARK    4  A    between atoms: C_6  and  C_7
REMARK    5  A    between atoms: C_11  and  N_13
REMARK    6  A    between atoms: N_13  and  C_14
REMARK                            x       y       z     vdW  Elec       q    Type
REMARK                         _______ _______ _______ _____ _____    ______ ____
ROOT
ATOM      1  C   UNL     1      49.967  82.620  43.429  0.00  0.00    +0.034 A 
ATOM      2  C   UNL     1      49.601  83.933  43.624  0.00  0.00    +0.193 A 
ATOM      3  C   UNL     1      48.309  84.394  43.359  0.00  0.00    +0.043 A 
ATOM      4  C   UNL     1      47.378  83.487  42.886  0.00  0.00    +0.020 A 
ATOM      5  C   UNL     1      47.721  82.168  42.683  0.00  0.00    +0.070 A 
ATOM      6  C   UNL     1      49.008  81.752  42.957  0.00  0.00    +0.017 A 
ATOM      7  O   UNL     1      50.505  84.857  44.093  0.00  0.00    -0.287 OA
ENDROOT
BRANCH   1   8
ATOM      8  C   UNL     1      51.370  82.168  43.740  0.00  0.00    +0.102 C 
BRANCH   8   9
ATOM      9  N   UNL     1      51.864  81.474  42.607  0.00  0.00    -0.269 NA
BRANCH   9  11
ATOM     10  C   UNL     1      52.068  79.199  41.827  0.00  0.00    +0.019 C 
ATOM     11  C   UNL     1      52.505  80.238  42.800  0.00  0.00    +0.072 C 
ENDBRANCH   9  11
BRANCH   9  12
ATOM     12  C   UNL     1      52.259  82.248  41.497  0.00  0.00    +0.072 C 
ATOM     13  C   UNL     1      53.218  83.365  41.805  0.00  0.00    +0.019 C 
ENDBRANCH   9  12
ENDBRANCH   8   9
ENDBRANCH   1   8
BRANCH   5  14
ATOM     14  N   UNL     1      46.745  81.242  42.201  0.00  0.00    -0.212 NA
BRANCH  14  15
ATOM     15  C   UNL     1      46.241  81.403  40.883  0.00  0.00    +0.073 A 
ATOM     16  C   UNL     1      45.307  80.534  40.355  0.00  0.00    +0.033 A 
ATOM     17  C   UNL     1      44.811  79.477  41.078  0.00  0.00    +0.004 A 
ATOM     18  C   UNL     1      43.868  78.597  40.572  0.00  0.00    +0.012 A 
ATOM     19  C   UNL     1      43.431  78.831  39.274  0.00  0.00    +0.059 A 
ATOM     20  C   UNL     1      43.925  79.890  38.547  0.00  0.00    +0.031 A 
ATOM     21  C   UNL     1      44.862  80.757  39.060  0.00  0.00    +0.083 A 
ATOM     22  N   UNL     1      45.327  81.788  38.348  0.00  0.00    -0.244 NA
ATOM     23  C   UNL     1      46.235  82.651  38.834  0.00  0.00    +0.100 A 
ATOM     24  C   UNL     1      46.707  82.473  40.112  0.00  0.00    +0.037 A 
ATOM     25 CL   UNL     1      42.240  77.724  38.627  0.00  0.00    -0.082 Cl
ENDBRANCH  14  15
ENDBRANCH   5  14
TORSDOF 6
