REMARK  Name = Amorolfine
REMARK  6 active torsions:
REMARK  status: ('A' for Active; 'I' for Inactive)
REMARK    1  A    between atoms: C_2  and  C_3
REMARK    2  A    between atoms: C_3  and  C_6
REMARK    3  A    between atoms: C_9  and  C_12
REMARK    4  A    between atoms: C_12  and  C_13
REMARK    5  A    between atoms: C_13  and  C_15
REMARK    6  A    between atoms: C_15  and  N_16
REMARK                            x       y       z     vdW  Elec       q    Type
REMARK                         _______ _______ _______ _____ _____    ______ ____
ROOT
ATOM      1  C   UNL     1      45.170  80.199  39.031  0.00  0.00    +0.028 C 
ENDROOT
BRANCH   1   5
ATOM      2  C   UNL     1      47.827  82.431  41.452  0.00  0.00    -0.023 A 
ATOM      3  C   UNL     1      47.246  83.029  40.365  0.00  0.00    -0.005 A 
ATOM      4  C   UNL     1      46.364  82.302  39.539  0.00  0.00    -0.005 A 
ATOM      5  C   UNL     1      46.099  81.002  39.840  0.00  0.00    -0.022 A 
ATOM      6  C   UNL     1      46.692  80.414  40.938  0.00  0.00    -0.005 A 
ATOM      7  C   UNL     1      47.551  81.121  41.741  0.00  0.00    -0.005 A 
BRANCH   2   8
ATOM      8  C   UNL     1      48.749  83.194  42.303  0.00  0.00    +0.019 C 
ATOM      9  C   UNL     1      48.971  82.382  43.562  0.00  0.00    +0.004 C 
ATOM     10  C   UNL     1      50.077  83.340  41.593  0.00  0.00    +0.004 C 
BRANCH   8  12
ATOM     11  C   UNL     1      46.854  84.579  43.225  0.00  0.00    +0.000 C 
ATOM     12  C   UNL     1      48.236  84.578  42.616  0.00  0.00    +0.004 C 
ENDBRANCH   8  12
ENDBRANCH   2   8
ENDBRANCH   1   5
BRANCH   1  13
ATOM     13  C   UNL     1      44.363  79.335  40.012  0.00  0.00    +0.020 C 
ATOM     14  C   UNL     1      44.407  79.966  41.344  0.00  0.00    +0.002 C 
BRANCH  13  15
ATOM     15  C   UNL     1      43.060  79.024  39.392  0.00  0.00    +0.073 C 
BRANCH  15  16
ATOM     16  N   UNL     1      43.038  77.856  38.632  0.00  0.00    -0.269 NA
ATOM     17  C   UNL     1      42.147  77.683  37.560  0.00  0.00    +0.102 C 
ATOM     18  C   UNL     1      40.923  76.874  37.880  0.00  0.00    +0.131 C 
ATOM     19  O   UNL     1      40.927  76.059  38.932  0.00  0.00    -0.356 OA
ATOM     20  C   UNL     1      41.983  75.973  39.777  0.00  0.00    +0.131 C 
ATOM     21  C   UNL     1      43.249  76.608  39.299  0.00  0.00    +0.102 C 
ATOM     22  C   UNL     1      42.255  74.522  40.094  0.00  0.00    +0.034 C 
ATOM     23  C   UNL     1      40.557  76.084  36.629  0.00  0.00    +0.034 C 
ENDBRANCH  15  16
ENDBRANCH  13  15
ENDBRANCH   1  13
TORSDOF 6
