REMARK  Name = Amosulalol
REMARK  9 active torsions:
REMARK  status: ('A' for Active; 'I' for Inactive)
REMARK    1  A    between atoms: C_3  and  S_23
REMARK    2  A    between atoms: C_5  and  C_8
REMARK    3  A    between atoms: C_8  and  C_9
REMARK    4  A    between atoms: C_9  and  N_10
REMARK    5  A    between atoms: N_10  and  C_11
REMARK    6  A    between atoms: C_11  and  C_12
REMARK    7  A    between atoms: C_12  and  O_13
REMARK    8  A    between atoms: O_13  and  C_14
REMARK    9  A    between atoms: C_19  and  O_20
REMARK                            x       y       z     vdW  Elec       q    Type
REMARK                         _______ _______ _______ _____ _____    ______ ____
ROOT
ATOM      1  C   UNL     1      46.011  82.324  39.562  0.00  0.00    +0.192 C 
ATOM      2  O   UNL     1      46.128  82.093  38.176  0.00  0.00    -0.217 OA
ENDROOT
BRANCH   1   7
ATOM      3  C   UNL     1      51.084  83.765  41.859  0.00  0.00    +0.032 C 
ATOM      4  C   UNL     1      49.773  83.398  41.281  0.00  0.00    -0.003 A 
ATOM      5  C   UNL     1      48.609  83.525  42.011  0.00  0.00    +0.121 A 
ATOM      6  C   UNL     1      47.427  83.158  41.391  0.00  0.00    +0.018 A 
ATOM      7  C   UNL     1      47.369  82.685  40.112  0.00  0.00    +0.010 A 
ATOM      8  C   UNL     1      48.524  82.555  39.376  0.00  0.00    -0.002 A 
ATOM      9  C   UNL     1      49.729  82.921  39.987  0.00  0.00    -0.003 A 
BRANCH   5  10
ATOM     10  S   UNL     1      48.643  84.124  43.651  0.00  0.00    +0.093 S 
ATOM     11  O   UNL     1      47.263  84.340  44.201  0.00  0.00    -0.150 OA
ATOM     12  O   UNL     1      49.314  83.098  44.521  0.00  0.00    -0.150 OA
ATOM     13  N   UNL     1      49.573  85.578  43.688  0.00  0.00    +0.039 NA
ENDBRANCH   5  10
ENDBRANCH   1   7
BRANCH   1  14
ATOM     14  C   UNL     1      45.574  81.025  40.183  0.00  0.00    +0.126 C 
BRANCH  14  15
ATOM     15  N   UNL     1      44.784  80.276  39.240  0.00  0.00    -0.211 NA
BRANCH  15  16
ATOM     16  C   UNL     1      44.471  78.991  39.717  0.00  0.00    +0.136 C 
BRANCH  16  17
ATOM     17  C   UNL     1      43.726  78.058  38.811  0.00  0.00    +0.224 C 
BRANCH  17  18
ATOM     18  O   UNL     1      42.467  77.778  39.123  0.00  0.00    -0.471 OA
BRANCH  18  19
ATOM     19  C   UNL     1      41.396  77.170  38.598  0.00  0.00    +0.172 A 
ATOM     20  C   UNL     1      40.477  77.728  37.737  0.00  0.00    +0.040 A 
ATOM     21  C   UNL     1      39.402  77.027  37.235  0.00  0.00    +0.003 A 
ATOM     22  C   UNL     1      39.205  75.711  37.587  0.00  0.00    +0.003 A 
ATOM     23  C   UNL     1      40.129  75.144  38.456  0.00  0.00    +0.040 A 
ATOM     24  C   UNL     1      41.190  75.808  38.962  0.00  0.00    +0.172 A 
BRANCH  24  25
ATOM     25  O   UNL     1      42.110  75.248  39.827  0.00  0.00    -0.468 OA
ATOM     26  C   UNL     1      41.905  75.336  41.221  0.00  0.00    +0.253 C 
ENDBRANCH  24  25
ENDBRANCH  18  19
ENDBRANCH  17  18
ENDBRANCH  16  17
ENDBRANCH  15  16
ENDBRANCH  14  15
ENDBRANCH   1  14
TORSDOF 9
