REMARK  Name = Amoxicillin
REMARK  4 active torsions:
REMARK  status: ('A' for Active; 'I' for Inactive)
REMARK    1  A    between atoms: CA_3  and  C_22
REMARK    2  A    between atoms: CA_7  and  N_10
REMARK    3  A    between atoms: C_11  and  CA_13
REMARK    4  A    between atoms: CA_13  and  C_14
REMARK                            x       y       z     vdW  Elec       q    Type
REMARK                         _______ _______ _______ _____ _____    ______ ____
ROOT
ATOM      1  C   UNL     1      48.684  84.048  43.824  0.00  0.00    +0.013 C 
ATOM      2  C   UNL     1      48.735  82.840  42.906  0.00  0.00    +0.068 C 
ATOM      3  CA  UNL     1      49.276  83.250  41.577  0.00  0.00    +0.189 C 
ATOM      4  N   UNL     1      48.369  82.891  40.548  0.00  0.00    -0.259 N 
ATOM      5  C   UNL     1      46.981  83.088  40.909  0.00  0.00    +0.153 C 
ATOM      6  S   UNL     1      47.018  82.356  42.576  0.00  0.00    -0.118 S 
ATOM      7  CA  UNL     1      46.506  82.181  39.811  0.00  0.00    +0.200 C 
ATOM      8  C   UNL     1      47.895  82.426  39.293  0.00  0.00    +0.249 C 
ATOM      9  O   UNL     1      48.348  82.240  38.126  0.00  0.00    -0.273 OA
ATOM     10  C   UNL     1      49.516  81.772  43.593  0.00  0.00    +0.013 C 
ENDROOT
BRANCH   7  11
ATOM     11  N   UNL     1      46.346  80.799  40.142  0.00  0.00    -0.194 NA
ATOM     12  C   UNL     1      45.163  80.055  39.841  0.00  0.00    +0.264 C 
ATOM     13  O   UNL     1      44.127  80.427  40.457  0.00  0.00    -0.271 OA
BRANCH  12  14
ATOM     14  CA  UNL     1      45.123  78.944  38.896  0.00  0.00    +0.191 C 
ATOM     15  N   UNL     1      45.145  79.431  37.521  0.00  0.00    -0.118 NA
BRANCH  14  16
ATOM     16  C   UNL     1      43.861  78.174  39.029  0.00  0.00    +0.004 A 
ATOM     17  C   UNL     1      43.670  77.120  39.887  0.00  0.00    +0.001 A 
ATOM     18  C   UNL     1      42.450  76.465  39.930  0.00  0.00    +0.042 A 
ATOM     19  C   UNL     1      41.393  76.835  39.129  0.00  0.00    +0.196 A 
ATOM     20  C   UNL     1      41.589  77.894  38.268  0.00  0.00    +0.042 A 
ATOM     21  C   UNL     1      42.791  78.556  38.211  0.00  0.00    +0.001 A 
ATOM     22  O   UNL     1      40.190  76.170  39.187  0.00  0.00    -0.287 OA
ENDBRANCH  14  16
ENDBRANCH  12  14
ENDBRANCH   7  11
BRANCH   3  23
ATOM     23  C   UNL     1      50.608  82.602  41.432  0.00  0.00    +0.383 C 
ATOM     24  O   UNL     1      50.808  81.554  40.808  0.00  0.00    -0.244 OA
ATOM     25  OXT UNL     1      51.687  83.225  42.042  0.00  0.00    -0.244 OA
ENDBRANCH   3  23
TORSDOF 4
