REMARK  Name = Amphotericin_B
REMARK  3 active torsions:
REMARK  status: ('A' for Active; 'I' for Inactive)
REMARK    1  A    between atoms: C_17  and  O_55
REMARK    2  A    between atoms: C_20  and  C_52
REMARK    3  A    between atoms: O_55  and  C_56
REMARK                            x       y       z     vdW  Elec       q    Type
REMARK                         _______ _______ _______ _____ _____    ______ ____
ROOT
ATOM      1  C   UNL     1      51.165  70.317  43.859  0.00  0.00    +0.007 C 
ATOM      2  C   UNL     1      52.111  70.965  44.818  0.00  0.00    +0.053 C 
ATOM      3  C   UNL     1      52.863  72.079  44.155  0.00  0.00    -0.024 C 
ATOM      4  C   UNL     1      52.324  72.919  43.261  0.00  0.00    -0.005 C 
ATOM      5  C   UNL     1      50.962  72.926  42.780  0.00  0.00    -0.000 C 
ATOM      6  C   UNL     1      49.898  73.485  43.359  0.00  0.00    -0.000 C 
ATOM      7  C   UNL     1      49.899  74.220  44.605  0.00  0.00    -0.000 C 
ATOM      8  C   UNL     1      50.586  75.371  44.797  0.00  0.00    -0.000 C 
ATOM      9  C   UNL     1      51.394  75.975  43.727  0.00  0.00    +0.000 C 
ATOM     10  C   UNL     1      50.879  76.299  42.527  0.00  0.00    +0.000 C 
ATOM     11  C   UNL     1      49.457  76.070  42.206  0.00  0.00    -0.000 C 
ATOM     12  C   UNL     1      48.461  76.608  42.911  0.00  0.00    -0.000 C 
ATOM     13  C   UNL     1      48.681  77.483  44.063  0.00  0.00    -0.000 C 
ATOM     14  C   UNL     1      49.287  78.680  43.990  0.00  0.00    -0.000 C 
ATOM     15  C   UNL     1      49.808  79.305  42.785  0.00  0.00    -0.002 C 
ATOM     16  C   UNL     1      49.190  80.059  41.916  0.00  0.00    +0.003 C 
ATOM     17  C   UNL     1      47.728  80.490  41.959  0.00  0.00    +0.142 C 
ATOM     18  C   UNL     1      46.897  79.886  40.916  0.00  0.00    +0.064 C 
ATOM     19  C   UNL     1      45.605  79.234  41.346  0.00  0.00    +0.134 C 
ATOM     20  C   UNL     1      44.392  79.700  40.599  0.00  0.00    +0.161 C 
ATOM     21  C   UNL     1      44.478  79.424  39.137  0.00  0.00    +0.170 C 
ATOM     22  C   UNL     1      45.079  78.075  38.944  0.00  0.00    +0.093 C 
ATOM     23  C   UNL     1      45.148  77.241  40.203  0.00  0.00    +0.224 C 
ATOM     24  O   UNL     1      45.790  77.863  41.232  0.00  0.00    -0.334 OA
ATOM     25  C   UNL     1      43.799  76.671  40.515  0.00  0.00    +0.092 C 
ATOM     26  C   UNL     1      43.724  75.158  40.306  0.00  0.00    +0.160 C 
ATOM     27  C   UNL     1      42.368  74.677  40.760  0.00  0.00    +0.069 C 
ATOM     28  C   UNL     1      42.387  74.054  42.128  0.00  0.00    +0.185 C 
ATOM     29  C   UNL     1      42.351  72.525  42.070  0.00  0.00    +0.182 C 
ATOM     30  C   UNL     1      42.550  71.996  43.483  0.00  0.00    +0.038 C 
ATOM     31  C   UNL     1      42.882  70.538  43.498  0.00  0.00    +0.036 C 
ATOM     32  C   UNL     1      44.358  70.329  43.669  0.00  0.00    +0.155 C 
ATOM     33  C   UNL     1      44.701  69.493  44.877  0.00  0.00    +0.066 C 
ATOM     34  C   UNL     1      45.833  68.557  44.540  0.00  0.00    +0.166 C 
ATOM     35  C   UNL     1      47.179  69.045  45.040  0.00  0.00    +0.142 C 
ATOM     36  C   UNL     1      47.226  69.244  46.505  0.00  0.00    +0.319 C 
ATOM     37  O   UNL     1      46.244  68.880  47.194  0.00  0.00    -0.250 OA
ATOM     38  O   UNL     1      48.317  69.812  47.080  0.00  0.00    -0.452 OA
ATOM     39  C   UNL     1      49.668  69.732  46.595  0.00  0.00    +0.171 C 
ATOM     40  C   UNL     1      50.117  71.120  46.380  0.00  0.00    +0.071 C 
ATOM     41  C   UNL     1      51.542  71.405  46.124  0.00  0.00    +0.159 C 
ATOM     42  O   UNL     1      52.387  71.051  47.184  0.00  0.00    -0.223 OA
ATOM     43  C   UNL     1      49.644  71.972  47.580  0.00  0.00    +0.006 C 
ATOM     44  C   UNL     1      50.401  68.900  47.594  0.00  0.00    +0.047 C 
ATOM     45  O   UNL     1      45.555  67.277  45.035  0.00  0.00    -0.222 OA
ATOM     46  O   UNL     1      44.839  69.731  42.502  0.00  0.00    -0.223 OA
ATOM     47  O   UNL     1      41.092  72.104  41.646  0.00  0.00    -0.220 OA
ATOM     48  O   UNL     1      43.482  74.501  42.857  0.00  0.00    -0.220 OA
ATOM     49  O   UNL     1      43.798  74.971  38.921  0.00  0.00    -0.223 OA
ATOM     50  O   UNL     1      45.953  76.132  39.838  0.00  0.00    -0.195 OA
ATOM     51  O   UNL     1      45.178  80.361  38.410  0.00  0.00    -0.222 OA
ENDROOT
BRANCH  20  52
ATOM     52  C   UNL     1      44.075  81.108  40.914  0.00  0.00    +0.369 C 
ATOM     53  O   UNL     1      44.115  81.539  42.080  0.00  0.00    -0.245 OA
ATOM     54  O   UNL     1      43.713  82.027  39.916  0.00  0.00    -0.245 OA
ENDBRANCH  20  52
BRANCH  17  55
ATOM     55  O   UNL     1      47.825  81.921  41.826  0.00  0.00    -0.327 OA
BRANCH  55  56
ATOM     56  C   UNL     1      49.020  82.287  41.195  0.00  0.00    +0.268 C 
ATOM     57  C   UNL     1      50.124  81.316  41.287  0.00  0.00    +0.228 C 
ATOM     58  C   UNL     1      51.248  81.863  42.159  0.00  0.00    +0.160 C 
ATOM     59  C   UNL     1      50.693  82.251  43.534  0.00  0.00    +0.199 C 
ATOM     60  C   UNL     1      49.444  83.104  43.307  0.00  0.00    +0.150 C 
ATOM     61  O   UNL     1      49.394  83.459  41.949  0.00  0.00    -0.328 OA
ATOM     62  C   UNL     1      49.352  84.278  44.237  0.00  0.00    +0.035 C 
ATOM     63  O   UNL     1      51.636  83.005  44.204  0.00  0.00    -0.219 OA
ATOM     64  N   UNL     1      51.841  83.003  41.499  0.00  0.00    -0.127 NA
ATOM     65  O   UNL     1      50.707  80.972  40.069  0.00  0.00    -0.216 OA
ENDBRANCH  55  56
ENDBRANCH  17  55
TORSDOF 3
