REMARK  Name = Ampicillin
REMARK  4 active torsions:
REMARK  status: ('A' for Active; 'I' for Inactive)
REMARK    1  A    between atoms: CA_3  and  C_21
REMARK    2  A    between atoms: CA_7  and  N_10
REMARK    3  A    between atoms: C_11  and  CA_13
REMARK    4  A    between atoms: CA_13  and  C_14
REMARK                            x       y       z     vdW  Elec       q    Type
REMARK                         _______ _______ _______ _____ _____    ______ ____
ROOT
ATOM      1  C   UNL     1      51.858  83.702  41.309  0.00  0.00    +0.013 C 
ATOM      2  C   UNL     1      50.809  82.722  41.747  0.00  0.00    +0.068 C 
ATOM      3  CA  UNL     1      49.657  83.384  42.397  0.00  0.00    +0.189 C 
ATOM      4  N   UNL     1      48.465  82.668  42.256  0.00  0.00    -0.259 N 
ATOM      5  C   UNL     1      48.517  81.541  41.300  0.00  0.00    +0.153 C 
ATOM      6  S   UNL     1      49.943  82.004  40.282  0.00  0.00    -0.118 S 
ATOM      7  CA  UNL     1      47.176  82.035  40.912  0.00  0.00    +0.200 C 
ATOM      8  C   UNL     1      47.131  82.251  42.411  0.00  0.00    +0.249 C 
ATOM      9  O   UNL     1      46.214  82.076  43.243  0.00  0.00    -0.273 OA
ATOM     10  C   UNL     1      51.382  81.558  42.505  0.00  0.00    +0.013 C 
ENDROOT
BRANCH   7  11
ATOM     11  N   UNL     1      46.217  81.052  40.459  0.00  0.00    -0.194 NA
ATOM     12  C   UNL     1      45.488  81.136  39.264  0.00  0.00    +0.264 C 
ATOM     13  O   UNL     1      45.905  81.966  38.397  0.00  0.00    -0.271 OA
BRANCH  12  14
ATOM     14  CA  UNL     1      44.294  80.350  38.943  0.00  0.00    +0.191 C 
ATOM     15  N   UNL     1      44.238  80.035  37.505  0.00  0.00    -0.118 NA
BRANCH  14  16
ATOM     16  C   UNL     1      44.222  79.035  39.626  0.00  0.00    +0.004 A 
ATOM     17  C   UNL     1      44.138  77.850  38.928  0.00  0.00    -0.002 A 
ATOM     18  C   UNL     1      44.075  76.621  39.592  0.00  0.00    -0.000 A 
ATOM     19  C   UNL     1      44.097  76.588  40.962  0.00  0.00    -0.000 A 
ATOM     20  C   UNL     1      44.180  77.759  41.679  0.00  0.00    -0.000 A 
ATOM     21  C   UNL     1      44.241  78.960  41.001  0.00  0.00    -0.002 A 
ENDBRANCH  14  16
ENDBRANCH  12  14
ENDBRANCH   7  11
BRANCH   3  22
ATOM     22  C   UNL     1      49.890  83.684  43.840  0.00  0.00    +0.383 C 
ATOM     23  O   UNL     1      50.509  84.715  44.215  0.00  0.00    -0.244 OA
ATOM     24  OXT UNL     1      49.439  82.844  44.850  0.00  0.00    -0.244 OA
ENDBRANCH   3  22
TORSDOF 4
