REMARK  Name = Amprenavir
REMARK  12 active torsions:
REMARK  status: ('A' for Active; 'I' for Inactive)
REMARK    1  A    between atoms: C_2  and  C_4
REMARK    2  A    between atoms: C_4  and  N_5
REMARK    3  A    between atoms: N_5  and  C_6
REMARK    4  A    between atoms: N_5  and  S_26
REMARK    5  A    between atoms: C_6  and  C_7
REMARK    6  A    between atoms: C_7  and  C_8
REMARK    7  A    between atoms: C_8  and  C_9
REMARK    8  A    between atoms: C_8  and  N_16
REMARK    9  A    between atoms: C_9  and  C_10
REMARK   10  A    between atoms: C_17  and  O_19
REMARK   11  A    between atoms: O_19  and  C_20
REMARK   12  A    between atoms: S_26  and  C_29
REMARK                            x       y       z     vdW  Elec       q    Type
REMARK                         _______ _______ _______ _____ _____    ______ ____
ROOT
ATOM      1  C   UNL     1      45.973  80.027  39.320  0.00  0.00    +0.190 C 
ATOM      2  O   UNL     1      45.460  81.299  39.556  0.00  0.00    -0.220 OA
ENDROOT
BRANCH   1   3
ATOM      3  C   UNL     1      46.762  79.683  40.591  0.00  0.00    +0.130 C 
BRANCH   3   4
ATOM      4  N   UNL     1      47.914  80.543  40.621  0.00  0.00    -0.153 NA
BRANCH   4   5
ATOM      5  S   UNL     1      47.561  82.192  40.617  0.00  0.00    +0.063 S 
ATOM      6  O   UNL     1      46.104  82.380  41.032  0.00  0.00    -0.153 OA
ATOM      7  O   UNL     1      47.677  82.873  39.291  0.00  0.00    -0.153 OA
BRANCH   5   8
ATOM      8  C   UNL     1      48.531  83.094  41.768  0.00  0.00    +0.122 A 
ATOM      9  C   UNL     1      47.918  83.628  42.870  0.00  0.00    +0.021 A 
ATOM     10  C   UNL     1      48.674  84.335  43.774  0.00  0.00    +0.019 A 
ATOM     11  C   UNL     1      50.023  84.511  43.589  0.00  0.00    +0.089 A 
ATOM     12  C   UNL     1      50.661  83.976  42.479  0.00  0.00    +0.019 A 
ATOM     13  C   UNL     1      49.871  83.266  41.580  0.00  0.00    +0.021 A 
ATOM     14  N   UNL     1      50.804  85.256  44.548  0.00  0.00    -0.128 NA
ENDBRANCH   5   8
ENDBRANCH   4   5
BRANCH   4  15
ATOM     15  C   UNL     1      48.951  80.085  41.463  0.00  0.00    +0.096 C 
BRANCH  15  17
ATOM     16  C   UNL     1      49.902  78.231  40.134  0.00  0.00    +0.001 C 
ATOM     17  C   UNL     1      49.264  78.630  41.456  0.00  0.00    +0.018 C 
ATOM     18  C   UNL     1      50.082  78.116  42.588  0.00  0.00    +0.001 C 
ENDBRANCH  15  17
ENDBRANCH   4  15
ENDBRANCH   3   4
ENDBRANCH   1   3
BRANCH   1  19
ATOM     19  C   UNL     1      44.806  79.061  39.169  0.00  0.00    +0.135 C 
BRANCH  19  20
ATOM     20  N   UNL     1      44.297  78.690  40.491  0.00  0.00    -0.167 NA
ATOM     21  C   UNL     1      44.515  77.386  41.006  0.00  0.00    +0.421 C 
ATOM     22  O   UNL     1      45.438  76.647  40.526  0.00  0.00    -0.225 OA
BRANCH  21  23
ATOM     23  O   UNL     1      43.752  76.845  42.044  0.00  0.00    -0.435 OA
BRANCH  23  24
ATOM     24  C   UNL     1      44.158  75.663  42.662  0.00  0.00    +0.202 C 
ATOM     25  C   UNL     1      43.270  75.303  43.861  0.00  0.00    +0.078 C 
ATOM     26  C   UNL     1      44.228  74.530  44.714  0.00  0.00    +0.146 C 
ATOM     27  O   UNL     1      45.494  74.714  44.240  0.00  0.00    -0.350 OA
ATOM     28  C   UNL     1      45.498  75.764  43.348  0.00  0.00    +0.186 C 
ENDBRANCH  23  24
ENDBRANCH  21  23
ENDBRANCH  19  20
BRANCH  19  29
ATOM     29  C   UNL     1      43.702  79.614  38.312  0.00  0.00    +0.051 C 
BRANCH  29  30
ATOM     30  C   UNL     1      42.519  78.791  38.172  0.00  0.00    -0.020 A 
ATOM     31  C   UNL     1      41.497  79.234  37.324  0.00  0.00    -0.004 A 
ATOM     32  C   UNL     1      40.336  78.513  37.139  0.00  0.00    -0.000 A 
ATOM     33  C   UNL     1      40.151  77.321  37.795  0.00  0.00    -0.000 A 
ATOM     34  C   UNL     1      41.132  76.869  38.627  0.00  0.00    -0.000 A 
ATOM     35  C   UNL     1      42.302  77.607  38.806  0.00  0.00    -0.004 A 
ENDBRANCH  29  30
ENDBRANCH  19  29
ENDBRANCH   1  19
TORSDOF 12
