REMARK  Name = Amtolmetin_guacil
REMARK  9 active torsions:
REMARK  status: ('A' for Active; 'I' for Inactive)
REMARK    1  A    between atoms: C_5  and  C_8
REMARK    2  A    between atoms: C_8  and  C_10
REMARK    3  A    between atoms: C_13  and  C_16
REMARK    4  A    between atoms: C_16  and  C_17
REMARK    5  A    between atoms: N_19  and  C_20
REMARK    6  A    between atoms: C_20  and  C_21
REMARK    7  A    between atoms: C_21  and  O_23
REMARK    8  A    between atoms: O_23  and  C_24
REMARK    9  A    between atoms: C_29  and  O_30
REMARK                            x       y       z     vdW  Elec       q    Type
REMARK                         _______ _______ _______ _____ _____    ______ ____
ROOT
ATOM      1  C   UNL     1      45.356  79.492  39.583  0.00  0.00    +0.130 C 
ENDROOT
BRANCH   1   5
ATOM      2  C   UNL     1      42.266  77.619  39.187  0.00  0.00    +0.099 A 
ATOM      3  C   UNL     1      42.041  78.783  38.389  0.00  0.00    +0.022 A 
ATOM      4  C   UNL     1      43.142  79.540  38.471  0.00  0.00    +0.015 A 
ATOM      5  C   UNL     1      44.063  78.914  39.285  0.00  0.00    +0.046 A 
ATOM      6  N   UNL     1      43.488  77.769  39.684  0.00  0.00    -0.326 N 
ATOM      7  C   UNL     1      44.213  76.820  40.495  0.00  0.00    +0.130 C 
BRANCH   2   8
ATOM      8  C   UNL     1      41.273  76.573  39.254  0.00  0.00    +0.211 C 
ATOM      9  O   UNL     1      41.048  76.007  40.417  0.00  0.00    -0.285 OA
BRANCH   8  14
ATOM     10  C   UNL     1      38.180  74.555  34.835  0.00  0.00    +0.031 C 
ATOM     11  C   UNL     1      38.938  75.037  36.020  0.00  0.00    -0.022 A 
ATOM     12  C   UNL     1      38.765  74.558  37.291  0.00  0.00    -0.004 A 
ATOM     13  C   UNL     1      39.498  75.035  38.350  0.00  0.00    +0.003 A 
ATOM     14  C   UNL     1      40.458  76.028  38.209  0.00  0.00    +0.040 A 
ATOM     15  C   UNL     1      40.616  76.501  36.894  0.00  0.00    +0.003 A 
ATOM     16  C   UNL     1      39.880  76.020  35.845  0.00  0.00    -0.004 A 
ENDBRANCH   8  14
ENDBRANCH   2   8
ENDBRANCH   1   5
BRANCH   1  17
ATOM     17  C   UNL     1      45.513  80.938  39.421  0.00  0.00    +0.248 C 
ATOM     18  O   UNL     1      44.721  81.541  38.662  0.00  0.00    -0.273 OA
ATOM     19  N   UNL     1      46.518  81.697  40.084  0.00  0.00    -0.193 NA
BRANCH  19  20
ATOM     20  C   UNL     1      47.619  82.353  39.471  0.00  0.00    +0.224 C 
BRANCH  20  21
ATOM     21  C   UNL     1      48.578  82.997  40.375  0.00  0.00    +0.344 C 
ATOM     22  O   UNL     1      49.315  83.986  40.058  0.00  0.00    -0.248 OA
BRANCH  21  23
ATOM     23  O   UNL     1      48.732  82.531  41.673  0.00  0.00    -0.420 OA
BRANCH  23  24
ATOM     24  C   UNL     1      49.849  82.805  42.420  0.00  0.00    +0.182 A 
ATOM     25  C   UNL     1      50.971  82.060  42.378  0.00  0.00    +0.041 A 
ATOM     26  C   UNL     1      52.097  82.357  43.152  0.00  0.00    +0.003 A 
ATOM     27  C   UNL     1      52.049  83.439  43.973  0.00  0.00    +0.003 A 
ATOM     28  C   UNL     1      50.935  84.236  44.057  0.00  0.00    +0.040 A 
ATOM     29  C   UNL     1      49.825  83.929  43.282  0.00  0.00    +0.173 A 
BRANCH  29  30
ATOM     30  O   UNL     1      48.755  84.656  43.327  0.00  0.00    -0.468 OA
ATOM     31  C   UNL     1      47.697  85.384  43.391  0.00  0.00    +0.253 C 
ENDBRANCH  29  30
ENDBRANCH  23  24
ENDBRANCH  21  23
ENDBRANCH  20  21
ENDBRANCH  19  20
ENDBRANCH   1  17
TORSDOF 9
