REMARK  Name = Anagrelide
REMARK  0 active torsions:
REMARK  status: ('A' for Active; 'I' for Inactive)
REMARK                            x       y       z     vdW  Elec       q    Type
REMARK                         _______ _______ _______ _____ _____    ______ ____
ROOT
ATOM      1  C   UNL     1      47.380  83.476  41.087  0.00  0.00    +0.123 C 
ATOM      2  C   UNL     1      48.277  82.875  42.066  0.00  0.00    +0.027 A 
ATOM      3  C   UNL     1      48.473  81.522  42.094  0.00  0.00    +0.082 A 
ATOM      4  C   UNL     1      49.359  81.033  43.050  0.00  0.00    +0.020 A 
ATOM      5  C   UNL     1      50.019  81.853  43.940  0.00  0.00    +0.014 A 
ATOM      6  C   UNL     1      49.820  83.225  43.912  0.00  0.00    +0.068 A 
ATOM      7  C   UNL     1      48.952  83.717  42.975  0.00  0.00    +0.067 A 
ATOM      8 CL   UNL     1      48.659  85.446  42.892  0.00  0.00    -0.082 Cl
ATOM      9 CL   UNL     1      50.651  84.284  45.035  0.00  0.00    -0.081 Cl
ATOM     10  N   UNL     1      47.794  80.641  41.198  0.00  0.00    -0.216 NA
ATOM     11  C   UNL     1      46.959  81.088  40.320  0.00  0.00    +0.212 C 
ATOM     12  N   UNL     1      46.737  82.477  40.276  0.00  0.00    -0.268 N 
ATOM     13  C   UNL     1      45.721  82.781  39.261  0.00  0.00    +0.182 C 
ATOM     14  C   UNL     1      45.439  81.483  38.642  0.00  0.00    +0.268 C 
ATOM     15  O   UNL     1      44.670  81.237  37.648  0.00  0.00    -0.271 OA
ATOM     16  N   UNL     1      46.165  80.471  39.320  0.00  0.00    -0.145 NA
ENDROOT
TORSDOF 0
