REMARK  Name = Anastrozole
REMARK  6 active torsions:
REMARK  status: ('A' for Active; 'I' for Inactive)
REMARK    1  A    between atoms: C_2  and  C_4
REMARK    2  A    between atoms: C_2  and  C_6
REMARK    3  A    between atoms: C_8  and  C_18
REMARK    4  A    between atoms: C_10  and  C_12
REMARK    5  A    between atoms: C_12  and  N_13
REMARK    6  A    between atoms: C_18  and  C_21
REMARK                            x       y       z     vdW  Elec       q    Type
REMARK                         _______ _______ _______ _____ _____    ______ ____
ROOT
ATOM      1  C   UNL     1      48.386  83.151  42.697  0.00  0.00    -0.010 A 
ATOM      2  C   UNL     1      49.679  82.776  42.610  0.00  0.00    -0.007 A 
ATOM      3  C   UNL     1      50.159  81.581  42.044  0.00  0.00    -0.010 A 
ATOM      4  C   UNL     1      49.161  80.784  41.560  0.00  0.00    -0.006 A 
ATOM      5  C   UNL     1      47.849  81.084  41.603  0.00  0.00    +0.002 A 
ATOM      6  C   UNL     1      47.391  82.254  42.167  0.00  0.00    -0.006 A 
ENDROOT
BRANCH   1   8
ATOM      7  C   UNL     1      46.547  84.306  43.895  0.00  0.00    +0.020 C 
ATOM      8  C   UNL     1      47.890  84.385  43.259  0.00  0.00    +0.098 C 
ATOM      9  C   UNL     1      47.643  85.355  42.032  0.00  0.00    +0.020 C 
BRANCH   8  10
ATOM     10  C   UNL     1      48.797  85.058  44.139  0.00  0.00    +0.075 C 
ATOM     11  N   UNL     1      49.620  85.644  44.938  0.00  0.00    -0.196 NA
ENDBRANCH   8  10
ENDBRANCH   1   8
BRANCH   3  12
ATOM     12  C   UNL     1      51.607  81.409  41.957  0.00  0.00    +0.098 C 
ATOM     13  C   UNL     1      51.967  80.156  42.714  0.00  0.00    +0.020 C 
ATOM     14  C   UNL     1      52.170  81.544  40.569  0.00  0.00    +0.020 C 
BRANCH  12  15
ATOM     15  C   UNL     1      52.338  82.442  42.819  0.00  0.00    +0.075 C 
ATOM     16  N   UNL     1      52.903  83.205  43.468  0.00  0.00    -0.196 NA
ENDBRANCH  12  15
ENDBRANCH   3  12
BRANCH   5  17
ATOM     17  C   UNL     1      46.808  80.313  40.805  0.00  0.00    +0.156 C 
BRANCH  17  18
ATOM     18  N   UNL     1      46.020  81.083  39.915  0.00  0.00    -0.226 N 
ATOM     19  C   UNL     1      46.454  81.976  39.086  0.00  0.00    +0.198 A 
ATOM     20  N   UNL     1      45.441  82.573  38.436  0.00  0.00    -0.201 NA
ATOM     21  C   UNL     1      44.355  82.005  38.907  0.00  0.00    +0.221 A 
ATOM     22  N   UNL     1      44.662  81.032  39.870  0.00  0.00    -0.145 NA
ENDBRANCH  17  18
ENDBRANCH   5  17
TORSDOF 6
