REMARK  Name = Andrographolide
REMARK  3 active torsions:
REMARK  status: ('A' for Active; 'I' for Inactive)
REMARK    1  A    between atoms: C_6  and  C_23
REMARK    2  A    between atoms: C_12  and  C_13
REMARK    3  A    between atoms: C_13  and  C_14
REMARK                            x       y       z     vdW  Elec       q    Type
REMARK                         _______ _______ _______ _____ _____    ______ ____
ROOT
ATOM      1  C   UNL     1      48.247  80.559  39.048  0.00  0.00    +0.000 C 
ATOM      2  C   UNL     1      47.331  80.969  40.207  0.00  0.00    +0.004 C 
ATOM      3  C   UNL     1      46.689  82.263  39.770  0.00  0.00    +0.003 C 
ATOM      4  C   UNL     1      46.000  82.045  38.469  0.00  0.00    +0.033 C 
ATOM      5  C   UNL     1      45.262  80.759  38.343  0.00  0.00    +0.154 C 
ATOM      6  C   UNL     1      45.114  79.962  39.593  0.00  0.00    +0.059 C 
ATOM      7  C   UNL     1      46.305  79.946  40.503  0.00  0.00    +0.005 C 
ATOM      8  C   UNL     1      46.968  78.579  40.538  0.00  0.00    +0.005 C 
ATOM      9  C   UNL     1      48.077  78.534  41.542  0.00  0.00    +0.022 C 
ATOM     10  C   UNL     1      48.817  79.807  41.678  0.00  0.00    -0.044 C 
ATOM     11  C   UNL     1      50.072  79.740  42.087  0.00  0.00    -0.009 C 
ATOM     12  C   UNL     1      48.240  81.149  41.386  0.00  0.00    +0.023 C 
ATOM     13  C   UNL     1      44.716  78.544  39.175  0.00  0.00    +0.005 C 
ATOM     14  O   UNL     1      43.947  81.099  37.929  0.00  0.00    -0.223 OA
ENDROOT
BRANCH   6  15
ATOM     15  C   UNL     1      43.896  80.508  40.339  0.00  0.00    +0.184 C 
ATOM     16  O   UNL     1      43.231  79.520  41.030  0.00  0.00    -0.220 OA
ENDBRANCH   6  15
BRANCH  12  17
ATOM     17  C   UNL     1      47.573  81.639  42.644  0.00  0.00    +0.030 C 
BRANCH  17  18
ATOM     18  C   UNL     1      48.606  82.176  43.567  0.00  0.00    -0.021 C 
ATOM     19  C   UNL     1      49.166  83.368  43.472  0.00  0.00    +0.083 C 
ATOM     20  C   UNL     1      50.569  83.734  43.186  0.00  0.00    +0.224 C 
ATOM     21  C   UNL     1      50.628  85.203  43.519  0.00  0.00    +0.246 C 
ATOM     22  O   UNL     1      49.324  85.646  43.197  0.00  0.00    -0.442 OA
ATOM     23  C   UNL     1      48.449  84.652  43.633  0.00  0.00    +0.339 C 
ATOM     24  O   UNL     1      47.291  84.819  44.071  0.00  0.00    -0.245 OA
ATOM     25  O   UNL     1      51.495  83.012  43.943  0.00  0.00    -0.214 OA
ENDBRANCH  17  18
ENDBRANCH  12  17
TORSDOF 3
