REMARK  Name = Anecortave_acetate
REMARK  4 active torsions:
REMARK  status: ('A' for Active; 'I' for Inactive)
REMARK    1  A    between atoms: C_2  and  O_4
REMARK    2  A    between atoms: O_4  and  C_5
REMARK    3  A    between atoms: C_5  and  C_6
REMARK    4  A    between atoms: C_6  and  C_8
REMARK                            x       y       z     vdW  Elec       q    Type
REMARK                         _______ _______ _______ _____ _____    ______ ____
ROOT
ATOM      1  C   UNL     1      50.013  82.902  42.981  0.00  0.00    +0.181 C 
ATOM      2  C   UNL     1      49.007  82.543  44.094  0.00  0.00    +0.038 C 
ATOM      3  C   UNL     1      47.670  82.651  43.454  0.00  0.00    +0.003 C 
ATOM      4  C   UNL     1      47.914  82.967  41.972  0.00  0.00    +0.007 C 
ATOM      5  C   UNL     1      49.274  82.355  41.791  0.00  0.00    +0.037 C 
ATOM      6  C   UNL     1      49.238  80.847  41.899  0.00  0.00    +0.028 C 
ATOM      7  C   UNL     1      48.030  80.265  41.243  0.00  0.00    -0.034 C 
ATOM      8  C   UNL     1      46.968  80.955  40.934  0.00  0.00    -0.046 C 
ATOM      9  C   UNL     1      46.806  82.392  41.184  0.00  0.00    +0.019 C 
ATOM     10  C   UNL     1      46.549  83.097  39.872  0.00  0.00    +0.008 C 
ATOM     11  C   UNL     1      46.359  82.139  38.714  0.00  0.00    +0.023 C 
ATOM     12  C   UNL     1      45.387  81.114  39.154  0.00  0.00    -0.039 C 
ATOM     13  C   UNL     1      44.198  80.920  38.649  0.00  0.00    +0.029 C 
ATOM     14  C   UNL     1      43.356  79.853  39.206  0.00  0.00    +0.173 C 
ATOM     15  O   UNL     1      42.440  79.391  38.508  0.00  0.00    -0.291 OA
ATOM     16  C   UNL     1      43.564  79.315  40.568  0.00  0.00    +0.070 C 
ATOM     17  C   UNL     1      44.706  80.015  41.274  0.00  0.00    +0.016 C 
ATOM     18  C   UNL     1      45.826  80.234  40.280  0.00  0.00    +0.030 C 
ATOM     19  C   UNL     1      46.247  78.874  39.773  0.00  0.00    +0.008 C 
ATOM     20  C   UNL     1      49.948  82.801  40.527  0.00  0.00    +0.003 C 
ATOM     21  O   UNL     1      50.038  84.280  42.973  0.00  0.00    -0.218 OA
ENDROOT
BRANCH   1  22
ATOM     22  C   UNL     1      51.313  82.296  43.259  0.00  0.00    +0.222 C 
ATOM     23  O   UNL     1      52.333  83.015  43.179  0.00  0.00    -0.290 OA
BRANCH  22  24
ATOM     24  C   UNL     1      51.571  80.912  43.621  0.00  0.00    +0.275 C 
BRANCH  24  25
ATOM     25  O   UNL     1      51.776  79.958  42.661  0.00  0.00    -0.440 OA
BRANCH  25  27
ATOM     26  C   UNL     1      52.027  77.672  41.644  0.00  0.00    +0.121 C 
ATOM     27  C   UNL     1      51.941  78.602  42.811  0.00  0.00    +0.318 C 
ATOM     28  O   UNL     1      52.020  78.141  43.976  0.00  0.00    -0.250 OA
ENDBRANCH  25  27
ENDBRANCH  24  25
ENDBRANCH  22  24
ENDBRANCH   1  22
TORSDOF 4
