REMARK  Name = ANGIOTENSIN_II
REMARK  29 active torsions:
REMARK  status: ('A' for Active; 'I' for Inactive)
REMARK    1  A    between atoms: CG1_2  and  CB_3
REMARK    2  A    between atoms: CB_3  and  CA_5
REMARK    3  A    between atoms: CA_5  and  C_6
REMARK    4  A    between atoms: CA_5  and  N_37
REMARK    5  A    between atoms: N_8  and  CA_9
REMARK    6  A    between atoms: CA_9  and  CB_10
REMARK    7  A    between atoms: CA_9  and  C_16
REMARK    8  A    between atoms: CB_10  and  CG_11
REMARK    9  A    between atoms: CA_22  and  C_23
REMARK   10  A    between atoms: N_25  and  CA_26
REMARK   11  A    between atoms: CA_26  and  CB_27
REMARK   12  A    between atoms: CA_26  and  C_34
REMARK   13  A    between atoms: CB_27  and  CG_28
REMARK   14  A    between atoms: C_38  and  CA_40
REMARK   15  A    between atoms: CA_40  and  CB_41
REMARK   16  A    between atoms: CA_40  and  N_49
REMARK   17  A    between atoms: CB_41  and  CG_42
REMARK   18  A    between atoms: C_50  and  CA_52
REMARK   19  A    between atoms: CA_52  and  CB_53
REMARK   20  A    between atoms: CA_52  and  N_56
REMARK   21  A    between atoms: C_57  and  CA_59
REMARK   22  A    between atoms: CA_59  and  CB_60
REMARK   23  A    between atoms: CA_59  and  N_67
REMARK   24  A    between atoms: CB_60  and  CG_61
REMARK   25  A    between atoms: CG_61  and  CD_62
REMARK   26  A    between atoms: CD_62  and  NE_63
REMARK   27  A    between atoms: C_68  and  CA_70
REMARK   28  A    between atoms: CA_70  and  CB_71
REMARK   29  A    between atoms: CB_71  and  CG_72
REMARK                            x       y       z     vdW  Elec       q    Type
REMARK                         _______ _______ _______ _____ _____    ______ ____
ROOT
ATOM      1  N   ILE A   5      47.979  76.301  47.788  0.00  0.00    -0.196 NA
ATOM      2  C   TYR A   4      47.479  75.940  46.515  0.00  0.00    +0.262 C 
ATOM      3  O   TYR A   4      48.314  75.637  45.571  0.00  0.00    -0.271 OA
ENDROOT
BRANCH   2   4
ATOM      4  CA  TYR A   4      46.080  75.864  46.163  0.00  0.00    +0.177 C 
BRANCH   4   5
ATOM      5  N   TYR A   4      45.898  75.802  44.717  0.00  0.00    -0.196 NA
ATOM      6  C   VAL A   3      44.678  75.751  44.023  0.00  0.00    +0.262 C 
ATOM      7  O   VAL A   3      43.634  75.705  44.704  0.00  0.00    -0.271 OA
BRANCH   6   8
ATOM      8  CA  VAL A   3      44.640  75.748  42.557  0.00  0.00    +0.173 C 
BRANCH   8   9
ATOM      9  N   VAL A   3      43.635  76.577  41.969  0.00  0.00    -0.196 NA
ATOM     10  C   ARG A   2      43.647  76.722  40.544  0.00  0.00    +0.262 C 
ATOM     11  O   ARG A   2      44.465  76.010  39.854  0.00  0.00    -0.271 OA
BRANCH  10  12
ATOM     12  CA  ARG A   2      42.738  77.681  39.908  0.00  0.00    +0.173 C 
BRANCH  12  13
ATOM     13  N   ARG A   2      41.782  76.996  39.054  0.00  0.00    -0.197 NA
ATOM     14  C   ASP A   1      40.398  76.949  39.248  0.00  0.00    +0.260 C 
ATOM     15  O   ASP A   1      39.829  77.442  40.233  0.00  0.00    -0.272 OA
BRANCH  14  16
ATOM     16  CA  ASP A   1      39.537  76.272  38.221  0.00  0.00    +0.181 C 
ATOM     17  N   ASP A   1      39.486  77.058  36.992  0.00  0.00    -0.122 NA
BRANCH  16  18
ATOM     18  CB  ASP A   1      38.106  76.200  38.758  0.00  0.00    +0.142 C 
BRANCH  18  19
ATOM     19  CG  ASP A   1      37.211  75.800  37.658  0.00  0.00    +0.367 C 
ATOM     20  OD1 ASP A   1      35.967  75.671  37.834  0.00  0.00    -0.246 OA
ATOM     21  OD2 ASP A   1      37.733  75.555  36.397  0.00  0.00    -0.246 OA
ENDBRANCH  18  19
ENDBRANCH  16  18
ENDBRANCH  14  16
ENDBRANCH  12  13
BRANCH  12  22
ATOM     22  CB  ARG A   2      43.477  78.807  39.202  0.00  0.00    +0.033 C 
BRANCH  22  23
ATOM     23  CG  ARG A   2      44.433  79.433  40.163  0.00  0.00    +0.029 C 
BRANCH  23  24
ATOM     24  CD  ARG A   2      45.420  80.290  39.389  0.00  0.00    +0.129 C 
BRANCH  24  25
ATOM     25  NE  ARG A   2      46.403  80.794  40.327  0.00  0.00    -0.234 NA
ATOM     26  CZ  ARG A   2      47.360  81.540  39.933  0.00  0.00    +0.284 C 
ATOM     27  NH1 ARG A   2      48.478  81.883  40.737  0.00  0.00    -0.104 NA
ATOM     28  NH2 ARG A   2      47.362  82.093  38.603  0.00  0.00    -0.104 NA
ENDBRANCH  24  25
ENDBRANCH  23  24
ENDBRANCH  22  23
ENDBRANCH  12  22
ENDBRANCH  10  12
ENDBRANCH   8   9
BRANCH   8  29
ATOM     29  CB  VAL A   3      45.972  76.244  41.996  0.00  0.00    +0.029 C 
ATOM     30  CG1 VAL A   3      47.076  75.384  42.539  0.00  0.00    +0.002 C 
ATOM     31  CG2 VAL A   3      46.032  76.410  40.533  0.00  0.00    +0.002 C 
ENDBRANCH   8  29
ENDBRANCH   6   8
ENDBRANCH   4   5
BRANCH   4  32
ATOM     32  CB  TYR A   4      45.138  74.969  46.823  0.00  0.00    +0.057 C 
BRANCH  32  33
ATOM     33  CG  TYR A   4      45.014  74.977  48.301  0.00  0.00    -0.020 A 
ATOM     34  CD1 TYR A   4      44.457  76.003  49.010  0.00  0.00    -0.001 A 
ATOM     35  CE1 TYR A   4      44.365  75.977  50.382  0.00  0.00    +0.042 A 
ATOM     36  CZ  TYR A   4      44.836  74.898  51.105  0.00  0.00    +0.196 A 
ATOM     37  CE2 TYR A   4      45.398  73.862  50.380  0.00  0.00    +0.042 A 
ATOM     38  CD2 TYR A   4      45.495  73.879  49.023  0.00  0.00    -0.001 A 
ATOM     39  OH  TYR A   4      44.733  74.888  52.500  0.00  0.00    -0.287 OA
ENDBRANCH  32  33
ENDBRANCH   4  32
ENDBRANCH   2   4
BRANCH   1  40
ATOM     40  CA  ILE A   5      49.392  76.383  48.010  0.00  0.00    +0.173 C 
BRANCH  40  41
ATOM     41  C   ILE A   5      49.746  76.873  49.361  0.00  0.00    +0.262 C 
ATOM     42  O   ILE A   5      48.835  77.331  50.125  0.00  0.00    -0.271 OA
ATOM     43  N   HIS A   6      51.048  76.887  49.891  0.00  0.00    -0.196 NA
BRANCH  43  44
ATOM     44  CA  HIS A   6      51.366  77.403  51.180  0.00  0.00    +0.177 C 
BRANCH  44  45
ATOM     45  C   HIS A   6      52.705  77.489  51.672  0.00  0.00    +0.246 C 
ATOM     46  O   HIS A   6      53.126  78.701  51.945  0.00  0.00    -0.273 OA
ATOM     47  N   PRO A   7      53.700  76.515  51.934  0.00  0.00    -0.272 N 
ATOM     48  CD  PRO A   7      53.484  75.112  52.024  0.00  0.00    +0.094 C 
ATOM     49  CG  PRO A   7      54.405  74.689  53.157  0.00  0.00    +0.024 C 
ATOM     50  CB  PRO A   7      55.581  75.620  52.989  0.00  0.00    +0.031 C 
ATOM     51  CA  PRO A   7      55.104  76.772  52.148  0.00  0.00    +0.154 C 
BRANCH  51  52
ATOM     52  C   PRO A   7      55.364  78.071  52.825  0.00  0.00    +0.260 C 
ATOM     53  O   PRO A   7      54.613  78.510  53.715  0.00  0.00    -0.272 OA
ATOM     54  N   PHE A   8      56.500  78.820  52.439  0.00  0.00    -0.194 NA
BRANCH  54  55
ATOM     55  CA  PHE A   8      56.855  80.027  53.214  0.00  0.00    +0.202 C 
BRANCH  55  56
ATOM     56  C   PHE A   8      57.667  79.704  54.385  0.00  0.00    +0.385 C 
ATOM     57  O   PHE A   8      57.940  80.630  55.225  0.00  0.00    -0.244 OA
ATOM     58  OXT PHE A   8      58.173  78.448  54.663  0.00  0.00    -0.244 OA
ENDBRANCH  55  56
BRANCH  55  59
ATOM     59  CB  PHE A   8      57.538  81.017  52.258  0.00  0.00    +0.060 C 
BRANCH  59  60
ATOM     60  CG  PHE A   8      56.628  81.397  51.185  0.00  0.00    -0.020 A 
ATOM     61  CD1 PHE A   8      55.272  81.049  51.299  0.00  0.00    -0.004 A 
ATOM     62  CE1 PHE A   8      54.382  81.363  50.308  0.00  0.00    -0.000 A 
ATOM     63  CZ  PHE A   8      54.794  82.029  49.168  0.00  0.00    -0.000 A 
ATOM     64  CE2 PHE A   8      56.106  82.368  49.050  0.00  0.00    -0.000 A 
ATOM     65  CD2 PHE A   8      57.008  82.057  50.045  0.00  0.00    -0.004 A 
ENDBRANCH  59  60
ENDBRANCH  55  59
ENDBRANCH  54  55
ENDBRANCH  51  52
ENDBRANCH  44  45
BRANCH  44  66
ATOM     66  CB  HIS A   6      50.557  78.687  51.304  0.00  0.00    +0.078 C 
BRANCH  66  67
ATOM     67  CG  HIS A   6      50.487  79.239  52.650  0.00  0.00    +0.082 A 
ATOM     68  CD2 HIS A   6      51.007  78.746  53.830  0.00  0.00    +0.115 A 
ATOM     69  NE2 HIS A   6      50.705  79.586  54.826  0.00  0.00    -0.221 NA
ATOM     70  CE1 HIS A   6      50.011  80.587  54.287  0.00  0.00    +0.199 A 
ATOM     71  ND1 HIS A   6      49.869  80.391  52.964  0.00  0.00    -0.227 NA
ENDBRANCH  66  67
ENDBRANCH  44  66
ENDBRANCH  43  44
ENDBRANCH  40  41
BRANCH  40  72
ATOM     72  CB  ILE A   5      50.123  75.046  47.921  0.00  0.00    +0.029 C 
ATOM     73  CG2 ILE A   5      49.754  74.102  49.037  0.00  0.00    +0.002 C 
BRANCH  72  75
ATOM     74  CD1 ILE A   5      51.217  74.925  45.633  0.00  0.00    +0.000 C 
ATOM     75  CG1 ILE A   5      50.243  74.393  46.618  0.00  0.00    +0.002 C 
ENDBRANCH  72  75
ENDBRANCH  40  72
ENDBRANCH   1  40
TORSDOF 29
