REMARK  Name = Anidulafungin
REMARK  14 active torsions:
REMARK  status: ('A' for Active; 'I' for Inactive)
REMARK    1  A    between atoms: C_2  and  C_3
REMARK    2  A    between atoms: C_3  and  C_4
REMARK    3  A    between atoms: C_4  and  C_5
REMARK    4  A    between atoms: C_5  and  O_6
REMARK    5  A    between atoms: O_6  and  C_7
REMARK    6  A    between atoms: C_10  and  C_13
REMARK    7  A    between atoms: C_16  and  C_19
REMARK    8  A    between atoms: C_22  and  C_25
REMARK    9  A    between atoms: N_27  and  C_28
REMARK   10  A    between atoms: C_42  and  C_76
REMARK   11  A    between atoms: C_46  and  C_65
REMARK   12  A    between atoms: C_57  and  C_61
REMARK   13  A    between atoms: C_65  and  C_66
REMARK   14  A    between atoms: C_66  and  C_67
REMARK                            x       y       z     vdW  Elec       q    Type
REMARK                         _______ _______ _______ _____ _____    ______ ____
ROOT
ATOM      1  C   UNL     1      45.857  80.813  40.754  0.00  0.00    +0.176 C 
ATOM      2  C   UNL     1      44.833  79.690  40.953  0.00  0.00    +0.069 C 
ATOM      3  C   UNL     1      45.261  78.726  42.020  0.00  0.00    +0.205 C 
ATOM      4  C   UNL     1      45.254  77.327  41.468  0.00  0.00    +0.277 C 
ATOM      5  N   UNL     1      45.540  76.335  42.491  0.00  0.00    -0.171 NA
ATOM      6  C   UNL     1      46.134  76.481  43.723  0.00  0.00    +0.264 C 
ATOM      7  O   UNL     1      45.481  76.110  44.769  0.00  0.00    -0.271 OA
ATOM      8  C   UNL     1      47.493  77.033  44.056  0.00  0.00    +0.184 C 
ATOM      9  C   UNL     1      48.411  77.114  42.878  0.00  0.00    +0.181 C 
ATOM     10  C   UNL     1      48.786  75.688  42.550  0.00  0.00    +0.052 C 
ATOM     11  C   UNL     1      48.361  74.915  43.756  0.00  0.00    +0.096 C 
ATOM     12  N   UNL     1      48.128  75.923  44.789  0.00  0.00    -0.269 N 
ATOM     13  C   UNL     1      48.361  75.866  46.161  0.00  0.00    +0.248 C 
ATOM     14  O   UNL     1      47.744  74.865  46.788  0.00  0.00    -0.273 OA
ATOM     15  C   UNL     1      49.153  76.676  47.096  0.00  0.00    +0.201 C 
ATOM     16  N   UNL     1      49.274  78.064  46.902  0.00  0.00    -0.194 NA
ATOM     17  C   UNL     1      50.268  79.032  46.916  0.00  0.00    +0.264 C 
ATOM     18  O   UNL     1      50.477  79.651  48.059  0.00  0.00    -0.271 OA
ATOM     19  C   UNL     1      51.188  79.554  45.874  0.00  0.00    +0.206 C 
ATOM     20  N   UNL     1      50.708  80.893  45.430  0.00  0.00    -0.194 NA
ATOM     21  C   UNL     1      50.262  81.398  44.259  0.00  0.00    +0.260 C 
ATOM     22  O   UNL     1      51.084  82.181  43.597  0.00  0.00    -0.272 OA
ATOM     23  C   UNL     1      48.963  81.247  43.522  0.00  0.00    +0.156 C 
ATOM     24  C   UNL     1      47.801  80.988  44.462  0.00  0.00    +0.064 C 
ATOM     25  C   UNL     1      47.366  82.379  44.856  0.00  0.00    +0.174 C 
ATOM     26  C   UNL     1      47.944  83.355  43.911  0.00  0.00    +0.127 C 
ATOM     27  N   UNL     1      48.618  82.524  42.881  0.00  0.00    -0.269 N 
ATOM     28  C   UNL     1      48.942  82.817  41.550  0.00  0.00    +0.248 C 
ATOM     29  O   UNL     1      49.487  84.007  41.422  0.00  0.00    -0.273 OA
ATOM     30  C   UNL     1      48.806  82.105  40.301  0.00  0.00    +0.201 C 
ATOM     31  N   UNL     1      48.350  80.759  40.304  0.00  0.00    -0.194 NA
ATOM     32  C   UNL     1      47.044  80.274  40.063  0.00  0.00    +0.262 C 
ATOM     33  O   UNL     1      46.834  79.326  39.220  0.00  0.00    -0.271 OA
ATOM     34  O   UNL     1      47.705  82.660  46.187  0.00  0.00    -0.221 OA
ATOM     35  C   UNL     1      50.278  75.609  42.352  0.00  0.00    +0.004 C 
ATOM     36  O   UNL     1      49.521  77.861  43.271  0.00  0.00    -0.221 OA
ATOM     37  O   UNL     1      43.949  77.102  40.959  0.00  0.00    -0.196 OA
ATOM     38  O   UNL     1      44.265  78.766  43.018  0.00  0.00    -0.218 OA
ENDROOT
BRANCH   1  41
ATOM     39  C   UNL     1      44.867  81.381  38.486  0.00  0.00    +0.265 C 
ATOM     40  O   UNL     1      45.405  82.016  37.556  0.00  0.00    -0.268 OA
ATOM     41  N   UNL     1      45.192  81.727  39.815  0.00  0.00    -0.194 NA
BRANCH  39  45
ATOM     42  C   UNL     1      42.059  78.191  37.890  0.00  0.00    +0.000 A 
ATOM     43  C   UNL     1      42.119  78.912  39.065  0.00  0.00    +0.000 A 
ATOM     44  C   UNL     1      43.020  79.947  39.271  0.00  0.00    +0.005 A 
ATOM     45  C   UNL     1      43.908  80.293  38.276  0.00  0.00    +0.055 A 
ATOM     46  C   UNL     1      43.842  79.563  37.099  0.00  0.00    +0.005 A 
ATOM     47  C   UNL     1      42.948  78.536  36.894  0.00  0.00    +0.000 A 
BRANCH  42  51
ATOM     48  C   UNL     1      39.070  75.153  37.416  0.00  0.00    +0.000 A 
ATOM     49  C   UNL     1      39.998  75.435  36.433  0.00  0.00    +0.000 A 
ATOM     50  C   UNL     1      40.974  76.398  36.571  0.00  0.00    +0.000 A 
ATOM     51  C   UNL     1      41.051  77.133  37.743  0.00  0.00    +0.000 A 
ATOM     52  C   UNL     1      40.133  76.860  38.729  0.00  0.00    +0.000 A 
ATOM     53  C   UNL     1      39.146  75.883  38.582  0.00  0.00    +0.000 A 
BRANCH  48  57
ATOM     54  C   UNL     1      36.146  72.047  36.867  0.00  0.00    +0.139 A 
ATOM     55  C   UNL     1      36.356  72.633  38.092  0.00  0.00    +0.037 A 
ATOM     56  C   UNL     1      37.297  73.650  38.284  0.00  0.00    +0.003 A 
ATOM     57  C   UNL     1      38.058  74.105  37.232  0.00  0.00    +0.000 A 
ATOM     58  C   UNL     1      37.859  73.528  35.999  0.00  0.00    +0.003 A 
ATOM     59  C   UNL     1      36.935  72.529  35.810  0.00  0.00    +0.037 A 
BRANCH  54  60
ATOM     60  O   UNL     1      35.231  71.050  36.631  0.00  0.00    -0.475 OA
BRANCH  60  61
ATOM     61  C   UNL     1      35.030  70.305  35.503  0.00  0.00    +0.205 C 
BRANCH  61  62
ATOM     62  C   UNL     1      33.864  69.388  35.457  0.00  0.00    +0.047 C 
BRANCH  62  63
ATOM     63  C   UNL     1      32.734  69.687  34.570  0.00  0.00    +0.004 C 
BRANCH  63  65
ATOM     64  C   UNL     1      30.529  69.231  33.442  0.00  0.00    +0.000 C 
ATOM     65  C   UNL     1      31.578  68.798  34.431  0.00  0.00    +0.000 C 
ENDBRANCH  63  65
ENDBRANCH  62  63
ENDBRANCH  61  62
ENDBRANCH  60  61
ENDBRANCH  54  60
ENDBRANCH  48  57
ENDBRANCH  42  51
ENDBRANCH  39  45
ENDBRANCH   1  41
BRANCH  30  66
ATOM     66  C   UNL     1      50.079  82.125  39.447  0.00  0.00    +0.181 C 
ATOM     67  C   UNL     1      50.386  83.449  38.849  0.00  0.00    +0.038 C 
ATOM     68  O   UNL     1      51.177  81.700  40.189  0.00  0.00    -0.221 OA
ENDBRANCH  30  66
BRANCH  15  69
ATOM     69  C   UNL     1      50.388  75.882  47.439  0.00  0.00    +0.181 C 
ATOM     70  C   UNL     1      50.309  74.425  47.152  0.00  0.00    +0.038 C 
ATOM     71  O   UNL     1      51.515  76.513  46.969  0.00  0.00    -0.221 OA
ENDBRANCH  15  69
BRANCH  19  72
ATOM     72  C   UNL     1      52.559  79.850  46.489  0.00  0.00    +0.215 C 
ATOM     73  O   UNL     1      52.958  78.860  47.366  0.00  0.00    -0.218 OA
BRANCH  72  74
ATOM     74  C   UNL     1      52.812  81.196  46.969  0.00  0.00    +0.207 C 
ATOM     75  O   UNL     1      53.419  81.992  45.914  0.00  0.00    -0.215 OA
BRANCH  74  76
ATOM     76  C   UNL     1      53.823  81.318  48.056  0.00  0.00    +0.011 A 
ATOM     77  C   UNL     1      54.595  80.309  48.544  0.00  0.00    +0.002 A 
ATOM     78  C   UNL     1      55.508  80.527  49.580  0.00  0.00    +0.042 A 
ATOM     79  C   UNL     1      55.660  81.772  50.141  0.00  0.00    +0.196 A 
ATOM     80  C   UNL     1      54.896  82.793  49.664  0.00  0.00    +0.042 A 
ATOM     81  C   UNL     1      53.993  82.585  48.644  0.00  0.00    +0.002 A 
ATOM     82  O   UNL     1      56.571  81.985  51.173  0.00  0.00    -0.287 OA
ENDBRANCH  74  76
ENDBRANCH  72  74
ENDBRANCH  19  72
TORSDOF 14
