REMARK  Name = Anileridine
REMARK  7 active torsions:
REMARK  status: ('A' for Active; 'I' for Inactive)
REMARK    1  A    between atoms: C_2  and  O_3
REMARK    2  A    between atoms: O_3  and  C_4
REMARK    3  A    between atoms: C_4  and  C_6
REMARK    4  A    between atoms: C_6  and  C_21
REMARK    5  A    between atoms: N_9  and  C_12
REMARK    6  A    between atoms: C_12  and  C_13
REMARK    7  A    between atoms: C_13  and  C_14
REMARK                            x       y       z     vdW  Elec       q    Type
REMARK                         _______ _______ _______ _____ _____    ______ ____
ROOT
ATOM      1  C   UNL     1      44.644  79.117  39.952  0.00  0.00    +0.111 C 
ATOM      2  C   UNL     1      44.374  80.452  40.545  0.00  0.00    +0.032 C 
ATOM      3  C   UNL     1      45.118  81.495  39.684  0.00  0.00    +0.073 C 
ATOM      4  N   UNL     1      46.522  81.303  39.962  0.00  0.00    -0.272 NA
ATOM      5  C   UNL     1      46.858  80.001  40.435  0.00  0.00    +0.073 C 
ATOM      6  C   UNL     1      46.091  79.014  39.543  0.00  0.00    +0.032 C 
ENDROOT
BRANCH   1   7
ATOM      7  C   UNL     1      44.359  77.962  40.829  0.00  0.00    -0.013 A 
ATOM      8  C   UNL     1      44.385  76.719  40.209  0.00  0.00    -0.004 A 
ATOM      9  C   UNL     1      44.141  75.573  40.908  0.00  0.00    -0.000 A 
ATOM     10  C   UNL     1      43.863  75.642  42.251  0.00  0.00    -0.000 A 
ATOM     11  C   UNL     1      43.835  76.872  42.874  0.00  0.00    -0.000 A 
ATOM     12  C   UNL     1      44.082  78.041  42.170  0.00  0.00    -0.004 A 
ENDBRANCH   1   7
BRANCH   1  13
ATOM     13  C   UNL     1      43.732  78.968  38.770  0.00  0.00    +0.320 C 
ATOM     14  O   UNL     1      44.014  79.416  37.630  0.00  0.00    -0.250 OA
BRANCH  13  15
ATOM     15  O   UNL     1      42.516  78.313  38.897  0.00  0.00    -0.448 OA
BRANCH  15  17
ATOM     16  C   UNL     1      40.654  76.940  38.168  0.00  0.00    +0.051 C 
ATOM     17  C   UNL     1      41.712  77.947  37.796  0.00  0.00    +0.209 C 
ENDBRANCH  15  17
ENDBRANCH  13  15
ENDBRANCH   1  13
BRANCH   4  18
ATOM     18  C   UNL     1      47.024  82.405  40.699  0.00  0.00    +0.077 C 
BRANCH  18  19
ATOM     19  C   UNL     1      48.181  81.932  41.558  0.00  0.00    +0.044 C 
BRANCH  19  20
ATOM     20  C   UNL     1      48.727  83.118  42.270  0.00  0.00    -0.021 A 
ATOM     21  C   UNL     1      50.078  83.364  42.210  0.00  0.00    -0.003 A 
ATOM     22  C   UNL     1      50.630  84.466  42.867  0.00  0.00    +0.018 A 
ATOM     23  C   UNL     1      49.787  85.300  43.575  0.00  0.00    +0.089 A 
ATOM     24  C   UNL     1      48.432  85.043  43.629  0.00  0.00    +0.018 A 
ATOM     25  C   UNL     1      47.876  83.941  42.973  0.00  0.00    -0.003 A 
ATOM     26  N   UNL     1      50.317  86.437  44.261  0.00  0.00    -0.128 NA
ENDBRANCH  19  20
ENDBRANCH  18  19
ENDBRANCH   4  18
TORSDOF 7
