REMARK  Name = Anileridine_Hydrochloride
REMARK  7 active torsions:
REMARK  status: ('A' for Active; 'I' for Inactive)
REMARK    1  A    between atoms: C_2  and  O_3
REMARK    2  A    between atoms: O_3  and  C_4
REMARK    3  A    between atoms: C_4  and  C_6
REMARK    4  A    between atoms: C_6  and  C_21
REMARK    5  A    between atoms: N_9  and  C_12
REMARK    6  A    between atoms: C_12  and  C_13
REMARK    7  A    between atoms: C_13  and  C_14
REMARK                            x       y       z     vdW  Elec       q    Type
REMARK                         _______ _______ _______ _____ _____    ______ ____
ROOT
ATOM      1  C   UNL     1      44.113  77.894  40.844  0.00  0.00    +0.111 C 
ATOM      2  C   UNL     1      45.505  78.185  40.344  0.00  0.00    +0.032 C 
ATOM      3  C   UNL     1      45.768  79.633  40.049  0.00  0.00    +0.073 C 
ATOM      4  N   UNL     1      45.595  80.370  41.247  0.00  0.00    -0.272 NA
ATOM      5  C   UNL     1      44.908  79.681  42.290  0.00  0.00    +0.073 C 
ATOM      6  C   UNL     1      43.672  79.039  41.724  0.00  0.00    +0.032 C 
ENDROOT
BRANCH   1   7
ATOM      7  C   UNL     1      44.043  76.621  41.583  0.00  0.00    -0.013 A 
ATOM      8  C   UNL     1      43.920  76.552  42.953  0.00  0.00    -0.004 A 
ATOM      9  C   UNL     1      43.861  75.350  43.639  0.00  0.00    -0.000 A 
ATOM     10  C   UNL     1      43.926  74.167  42.961  0.00  0.00    -0.000 A 
ATOM     11  C   UNL     1      44.050  74.196  41.594  0.00  0.00    -0.000 A 
ATOM     12  C   UNL     1      44.108  75.415  40.910  0.00  0.00    -0.004 A 
ENDBRANCH   1   7
BRANCH   1  13
ATOM     13  C   UNL     1      43.211  77.850  39.667  0.00  0.00    +0.320 C 
ATOM     14  O   UNL     1      42.509  76.834  39.482  0.00  0.00    -0.250 OA
BRANCH  13  15
ATOM     15  O   UNL     1      43.123  78.904  38.767  0.00  0.00    -0.448 OA
BRANCH  15  17
ATOM     16  C   UNL     1      42.643  77.598  36.855  0.00  0.00    +0.051 C 
ATOM     17  C   UNL     1      42.246  78.785  37.680  0.00  0.00    +0.209 C 
ENDBRANCH  15  17
ENDBRANCH  13  15
ENDBRANCH   1  13
BRANCH   4  18
ATOM     18  C   UNL     1      46.666  81.172  41.697  0.00  0.00    +0.077 C 
BRANCH  18  19
ATOM     19  C   UNL     1      46.926  82.372  40.779  0.00  0.00    +0.044 C 
BRANCH  19  20
ATOM     20  C   UNL     1      48.068  83.108  41.392  0.00  0.00    -0.021 A 
ATOM     21  C   UNL     1      49.385  82.838  41.072  0.00  0.00    -0.003 A 
ATOM     22  C   UNL     1      50.432  83.536  41.657  0.00  0.00    +0.018 A 
ATOM     23  C   UNL     1      50.206  84.530  42.584  0.00  0.00    +0.089 A 
ATOM     24  C   UNL     1      48.889  84.802  42.907  0.00  0.00    +0.018 A 
ATOM     25  C   UNL     1      47.849  84.107  42.324  0.00  0.00    -0.003 A 
ATOM     26  N   UNL     1      51.258  85.262  43.201  0.00  0.00    -0.128 NA
ENDBRANCH  19  20
ENDBRANCH  18  19
ENDBRANCH   4  18
TORSDOF 7
REMARK  Name = Anileridine_Hydrochloride
REMARK  7 active torsions:
REMARK  status: ('A' for Active; 'I' for Inactive)
REMARK    1  A    between atoms: C_2  and  O_3
REMARK    2  A    between atoms: O_3  and  C_4
REMARK    3  A    between atoms: C_4  and  C_6
REMARK    4  A    between atoms: C_6  and  C_21
REMARK    5  A    between atoms: N_9  and  C_12
REMARK    6  A    between atoms: C_12  and  C_13
REMARK    7  A    between atoms: C_13  and  C_14
REMARK                            x       y       z     vdW  Elec       q    Type
REMARK                         _______ _______ _______ _____ _____    ______ ____
ROOT
ATOM      1 CL   UNL     1      46.093  80.126  41.252  0.00  0.00    +0.000 Cl
ENDROOT
TORSDOF 0
REMARK  Name = Anileridine_Hydrochloride
REMARK  7 active torsions:
REMARK  status: ('A' for Active; 'I' for Inactive)
REMARK    1  A    between atoms: C_2  and  O_3
REMARK    2  A    between atoms: O_3  and  C_4
REMARK    3  A    between atoms: C_4  and  C_6
REMARK    4  A    between atoms: C_6  and  C_21
REMARK    5  A    between atoms: N_9  and  C_12
REMARK    6  A    between atoms: C_12  and  C_13
REMARK    7  A    between atoms: C_13  and  C_14
REMARK                            x       y       z     vdW  Elec       q    Type
REMARK                         _______ _______ _______ _____ _____    ______ ____
ROOT
ATOM      1 CL   UNL     1      46.095  80.128  41.253  0.00  0.00    +0.000 Cl
ENDROOT
TORSDOF 0
