REMARK  Name = Aniracetam
REMARK  2 active torsions:
REMARK  status: ('A' for Active; 'I' for Inactive)
REMARK    1  A    between atoms: O_2  and  C_3
REMARK    2  A    between atoms: C_6  and  C_9
REMARK                            x       y       z     vdW  Elec       q    Type
REMARK                         _______ _______ _______ _____ _____    ______ ____
ROOT
ATOM      1  C   UNL     1      42.912  77.589  39.574  0.00  0.00    +0.139 A 
ATOM      2  C   UNL     1      43.883  77.918  40.514  0.00  0.00    +0.037 A 
ATOM      3  C   UNL     1      44.672  79.056  40.348  0.00  0.00    +0.008 A 
ATOM      4  C   UNL     1      44.531  79.894  39.269  0.00  0.00    +0.054 A 
ATOM      5  C   UNL     1      43.566  79.570  38.333  0.00  0.00    +0.008 A 
ATOM      6  C   UNL     1      42.777  78.431  38.497  0.00  0.00    +0.037 A 
ENDROOT
BRANCH   4   7
ATOM      7  C   UNL     1      45.363  81.087  39.108  0.00  0.00    +0.255 C 
ATOM      8  O   UNL     1      45.190  81.853  38.120  0.00  0.00    -0.269 OA
ATOM      9  N   UNL     1      46.380  81.424  40.041  0.00  0.00    -0.226 N 
ATOM     10  C   UNL     1      46.734  80.685  41.255  0.00  0.00    +0.102 C 
ATOM     11  C   UNL     1      48.197  81.079  41.426  0.00  0.00    +0.032 C 
ATOM     12  C   UNL     1      48.116  82.567  41.103  0.00  0.00    +0.087 C 
ATOM     13  C   UNL     1      47.222  82.564  39.920  0.00  0.00    +0.232 C 
ATOM     14  O   UNL     1      47.202  83.400  38.986  0.00  0.00    -0.274 OA
ENDBRANCH   4   7
BRANCH   1  16
ATOM     15  C   UNL     1      42.632  75.183  40.103  0.00  0.00    +0.252 C 
ATOM     16  O   UNL     1      42.127  76.448  39.748  0.00  0.00    -0.471 OA
ENDBRANCH   1  16
TORSDOF 2
