REMARK  Name = Anisindione
REMARK  2 active torsions:
REMARK  status: ('A' for Active; 'I' for Inactive)
REMARK    1  A    between atoms: O_2  and  C_3
REMARK    2  A    between atoms: C_6  and  C_9
REMARK                            x       y       z     vdW  Elec       q    Type
REMARK                         _______ _______ _______ _____ _____    ______ ____
ROOT
ATOM      1  C   UNL     1      47.809  81.825  42.077  0.00  0.00    +0.146 C 
ATOM      2  C   UNL     1      47.497  83.180  42.602  0.00  0.00    +0.184 C 
ATOM      3  O   UNL     1      46.382  83.725  42.772  0.00  0.00    -0.291 OA
ATOM      4  C   UNL     1      48.786  83.808  42.904  0.00  0.00    +0.038 A 
ATOM      5  C   UNL     1      49.105  84.929  43.665  0.00  0.00    +0.003 A 
ATOM      6  C   UNL     1      50.408  85.320  43.798  0.00  0.00    +0.000 A 
ATOM      7  C   UNL     1      51.410  84.603  43.178  0.00  0.00    +0.000 A 
ATOM      8  C   UNL     1      51.105  83.489  42.420  0.00  0.00    +0.003 A 
ATOM      9  C   UNL     1      49.791  83.093  42.285  0.00  0.00    +0.038 A 
ATOM     10  C   UNL     1      49.191  81.980  41.561  0.00  0.00    +0.184 C 
ATOM     11  O   UNL     1      49.748  81.295  40.675  0.00  0.00    -0.291 OA
ENDROOT
BRANCH   1  15
ATOM     12  C   UNL     1      45.211  80.750  38.888  0.00  0.00    +0.139 A 
ATOM     13  C   UNL     1      45.898  81.944  38.843  0.00  0.00    +0.037 A 
ATOM     14  C   UNL     1      46.744  82.271  39.904  0.00  0.00    -0.000 A 
ATOM     15  C   UNL     1      46.900  81.428  40.983  0.00  0.00    -0.008 A 
ATOM     16  C   UNL     1      46.206  80.242  41.008  0.00  0.00    -0.000 A 
ATOM     17  C   UNL     1      45.358  79.895  39.963  0.00  0.00    +0.037 A 
BRANCH  12  19
ATOM     18  C   UNL     1      43.506  79.243  37.965  0.00  0.00    +0.252 C 
ATOM     19  O   UNL     1      44.357  80.371  37.867  0.00  0.00    -0.471 OA
ENDBRANCH  12  19
ENDBRANCH   1  15
TORSDOF 2
