REMARK  Name = Anisodamine
REMARK  5 active torsions:
REMARK  status: ('A' for Active; 'I' for Inactive)
REMARK    1  A    between atoms: C_5  and  O_11
REMARK    2  A    between atoms: O_11  and  C_12
REMARK    3  A    between atoms: C_12  and  C_14
REMARK    4  A    between atoms: C_14  and  C_15
REMARK    5  A    between atoms: C_14  and  C_17
REMARK                            x       y       z     vdW  Elec       q    Type
REMARK                         _______ _______ _______ _____ _____    ______ ____
ROOT
ATOM      1  O   UNL     1      48.322  80.747  41.764  0.00  0.00    -0.452 OA
ENDROOT
BRANCH   1   6
ATOM      2  C   UNL     1      43.664  78.610  39.916  0.00  0.00    +0.090 C 
ATOM      3  N   UNL     1      44.885  79.192  40.366  0.00  0.00    -0.272 NA
ATOM      4  C   UNL     1      46.033  78.866  39.569  0.00  0.00    +0.064 C 
ATOM      5  C   UNL     1      47.269  79.185  40.367  0.00  0.00    +0.060 C 
ATOM      6  C   UNL     1      47.292  80.632  40.838  0.00  0.00    +0.172 C 
ATOM      7  C   UNL     1      45.947  81.065  41.367  0.00  0.00    +0.062 C 
ATOM      8  C   UNL     1      44.892  80.632  40.367  0.00  0.00    +0.092 C 
ATOM      9  C   UNL     1      45.253  80.992  38.954  0.00  0.00    +0.168 C 
ATOM     10  C   UNL     1      45.999  79.808  38.383  0.00  0.00    +0.050 C 
ATOM     11  O   UNL     1      44.055  81.119  38.238  0.00  0.00    -0.222 OA
ENDBRANCH   1   6
BRANCH   1  12
ATOM     12  C   UNL     1      49.420  81.536  41.479  0.00  0.00    +0.323 C 
ATOM     13  O   UNL     1      49.667  81.723  40.264  0.00  0.00    -0.250 OA
BRANCH  12  14
ATOM     14  C   UNL     1      50.270  82.136  42.532  0.00  0.00    +0.154 C 
BRANCH  14  15
ATOM     15  C   UNL     1      49.656  83.385  43.014  0.00  0.00    -0.009 A 
ATOM     16  C   UNL     1      50.434  84.449  43.407  0.00  0.00    -0.004 A 
ATOM     17  C   UNL     1      49.820  85.602  43.852  0.00  0.00    -0.000 A 
ATOM     18  C   UNL     1      48.444  85.726  43.917  0.00  0.00    -0.000 A 
ATOM     19  C   UNL     1      47.680  84.662  43.524  0.00  0.00    -0.000 A 
ATOM     20  C   UNL     1      48.281  83.522  43.084  0.00  0.00    -0.004 A 
ENDBRANCH  14  15
BRANCH  14  21
ATOM     21  C   UNL     1      50.460  81.201  43.705  0.00  0.00    +0.198 C 
ATOM     22  O   UNL     1      51.556  80.389  43.403  0.00  0.00    -0.219 OA
ENDBRANCH  14  21
ENDBRANCH  12  14
ENDBRANCH   1  12
TORSDOF 5
