REMARK  Name = Anisodine
REMARK  5 active torsions:
REMARK  status: ('A' for Active; 'I' for Inactive)
REMARK    1  A    between atoms: C_5  and  O_11
REMARK    2  A    between atoms: O_11  and  C_12
REMARK    3  A    between atoms: C_12  and  C_14
REMARK    4  A    between atoms: C_14  and  C_15
REMARK    5  A    between atoms: C_14  and  C_17
REMARK                            x       y       z     vdW  Elec       q    Type
REMARK                         _______ _______ _______ _____ _____    ______ ____
ROOT
ATOM      1  C   UNL     1      48.930  81.470  41.503  0.00  0.00    +0.351 C 
ATOM      2  O   UNL     1      49.372  81.608  40.340  0.00  0.00    -0.247 OA
ENDROOT
BRANCH   1   3
ATOM      3  C   UNL     1      49.658  81.935  42.730  0.00  0.00    +0.263 C 
ATOM      4  O   UNL     1      49.361  80.998  43.739  0.00  0.00    -0.207 OA
BRANCH   3   5
ATOM      5  C   UNL     1      49.226  83.295  43.106  0.00  0.00    +0.018 A 
ATOM      6  C   UNL     1      50.183  84.255  43.415  0.00  0.00    -0.001 A 
ATOM      7  C   UNL     1      49.768  85.502  43.767  0.00  0.00    -0.000 A 
ATOM      8  C   UNL     1      48.427  85.834  43.825  0.00  0.00    -0.000 A 
ATOM      9  C   UNL     1      47.458  84.908  43.526  0.00  0.00    -0.000 A 
ATOM     10  C   UNL     1      47.897  83.629  43.165  0.00  0.00    -0.001 A 
ENDBRANCH   3   5
BRANCH   3  11
ATOM     11  C   UNL     1      51.122  81.813  42.392  0.00  0.00    +0.227 C 
ATOM     12  O   UNL     1      51.487  80.559  41.974  0.00  0.00    -0.217 OA
ENDBRANCH   3  11
ENDBRANCH   1   3
BRANCH   1  13
ATOM     13  O   UNL     1      47.712  80.859  41.668  0.00  0.00    -0.450 OA
BRANCH  13  18
ATOM     14  C   UNL     1      44.003  79.674  37.913  0.00  0.00    +0.090 C 
ATOM     15  N   UNL     1      44.950  79.951  38.947  0.00  0.00    -0.269 NA
ATOM     16  C   UNL     1      44.346  80.290  40.218  0.00  0.00    +0.091 C 
ATOM     17  C   UNL     1      45.389  81.024  41.027  0.00  0.00    +0.062 C 
ATOM     18  C   UNL     1      46.789  80.726  40.599  0.00  0.00    +0.172 C 
ATOM     19  C   UNL     1      46.965  79.326  40.054  0.00  0.00    +0.062 C 
ATOM     20  C   UNL     1      45.782  78.831  39.292  0.00  0.00    +0.091 C 
ATOM     21  C   UNL     1      44.968  77.945  40.206  0.00  0.00    +0.158 C 
ATOM     22  C   UNL     1      44.081  78.968  40.905  0.00  0.00    +0.158 C 
ATOM     23  O   UNL     1      43.600  77.924  40.117  0.00  0.00    -0.351 OA
ENDBRANCH  13  18
ENDBRANCH   1  13
TORSDOF 5
