REMARK  Name = Apixaban
REMARK  5 active torsions:
REMARK  status: ('A' for Active; 'I' for Inactive)
REMARK    1  A    between atoms: O_2  and  C_3
REMARK    2  A    between atoms: C_6  and  N_9
REMARK    3  A    between atoms: N_14  and  C_17
REMARK    4  A    between atoms: C_20  and  N_23
REMARK    5  A    between atoms: C_30  and  C_32
REMARK                            x       y       z     vdW  Elec       q    Type
REMARK                         _______ _______ _______ _____ _____    ______ ____
ROOT
ATOM      1  N   UNL     1      47.499  81.043  40.938  0.00  0.00    -0.225 N 
ATOM      2  C   UNL     1      46.376  80.288  40.777  0.00  0.00    +0.134 A 
ATOM      3  C   UNL     1      45.709  80.689  39.640  0.00  0.00    +0.026 A 
ATOM      4  C   UNL     1      44.442  80.056  39.196  0.00  0.00    +0.052 C 
ATOM      5  C   UNL     1      43.706  79.450  40.407  0.00  0.00    +0.103 C 
ATOM      6  N   UNL     1      44.590  78.576  41.142  0.00  0.00    -0.254 N 
ATOM      7  C   UNL     1      45.821  79.200  41.571  0.00  0.00    +0.270 C 
ATOM      8  O   UNL     1      46.438  78.861  42.587  0.00  0.00    -0.268 OA
ATOM      9  C   UNL     1      46.477  81.724  39.113  0.00  0.00    +0.155 A 
ATOM     10  N   UNL     1      47.515  81.883  39.922  0.00  0.00    -0.161 NA
ENDROOT
BRANCH   1  14
ATOM     11  C   UNL     1      50.254  80.641  44.139  0.00  0.00    +0.139 A 
ATOM     12  C   UNL     1      50.393  79.871  42.998  0.00  0.00    +0.038 A 
ATOM     13  C   UNL     1      49.484  80.021  41.972  0.00  0.00    +0.022 A 
ATOM     14  C   UNL     1      48.427  80.902  42.007  0.00  0.00    +0.083 A 
ATOM     15  C   UNL     1      48.309  81.662  43.160  0.00  0.00    +0.022 A 
ATOM     16  C   UNL     1      49.212  81.529  44.208  0.00  0.00    +0.038 A 
BRANCH  11  18
ATOM     17  C   UNL     1      52.334  81.240  45.326  0.00  0.00    +0.252 C 
ATOM     18  O   UNL     1      51.182  80.471  45.156  0.00  0.00    -0.471 OA
ENDBRANCH  11  18
ENDBRANCH   1  14
BRANCH   6  19
ATOM     19  C   UNL     1      44.350  77.211  41.428  0.00  0.00    +0.054 A 
ATOM     20  C   UNL     1      45.277  76.217  41.297  0.00  0.00    +0.016 A 
ATOM     21  C   UNL     1      45.006  74.883  41.612  0.00  0.00    +0.016 A 
ATOM     22  C   UNL     1      43.763  74.508  42.078  0.00  0.00    +0.054 A 
ATOM     23  C   UNL     1      42.825  75.500  42.213  0.00  0.00    +0.016 A 
ATOM     24  C   UNL     1      43.109  76.848  41.891  0.00  0.00    +0.016 A 
BRANCH  22  25
ATOM     25  N   UNL     1      43.497  73.168  42.421  0.00  0.00    -0.259 N 
ATOM     26  C   UNL     1      44.075  72.579  43.603  0.00  0.00    +0.098 C 
ATOM     27  C   UNL     1      42.927  71.972  44.409  0.00  0.00    +0.022 C 
ATOM     28  C   UNL     1      42.306  70.859  43.637  0.00  0.00    +0.011 C 
ATOM     29  C   UNL     1      41.740  71.321  42.308  0.00  0.00    +0.086 C 
ATOM     30  C   UNL     1      42.632  72.319  41.667  0.00  0.00    +0.229 C 
ATOM     31  O   UNL     1      42.625  72.421  40.420  0.00  0.00    -0.275 OA
ENDBRANCH  22  25
ENDBRANCH   6  19
BRANCH   9  32
ATOM     32  C   UNL     1      46.167  82.472  37.897  0.00  0.00    +0.303 C 
ATOM     33  O   UNL     1      45.095  82.287  37.283  0.00  0.00    -0.265 OA
ATOM     34  N   UNL     1      47.078  83.432  37.376  0.00  0.00    -0.082 NA
ENDBRANCH   9  32
TORSDOF 5
