REMARK  Name = Apomorphine
REMARK  0 active torsions:
REMARK  status: ('A' for Active; 'I' for Inactive)
REMARK                            x       y       z     vdW  Elec       q    Type
REMARK                         _______ _______ _______ _____ _____    ______ ____
ROOT
ATOM      1  C   UNL     1      45.531  76.386  42.940  0.00  0.00    +0.090 C 
ATOM      2  N   UNL     1      44.595  76.947  42.024  0.00  0.00    -0.269 NA
ATOM      3  C   UNL     1      43.481  76.117  41.730  0.00  0.00    +0.077 C 
ATOM      4  C   UNL     1      43.041  76.122  40.303  0.00  0.00    +0.043 C 
ATOM      5  C   UNL     1      43.151  77.421  39.647  0.00  0.00    -0.023 A 
ATOM      6  C   UNL     1      44.270  78.212  39.976  0.00  0.00    -0.011 A 
ATOM      7  C   UNL     1      45.189  77.612  40.901  0.00  0.00    +0.084 C 
ATOM      8  C   UNL     1      46.247  78.522  41.389  0.00  0.00    +0.047 C 
ATOM      9  C   UNL     1      46.425  79.791  40.693  0.00  0.00    -0.017 A 
ATOM     10  C   UNL     1      45.545  80.305  39.737  0.00  0.00    +0.038 A 
ATOM     11  C   UNL     1      44.408  79.442  39.380  0.00  0.00    -0.000 A 
ATOM     12  C   UNL     1      43.473  79.903  38.474  0.00  0.00    -0.000 A 
ATOM     13  C   UNL     1      42.382  79.093  38.173  0.00  0.00    -0.000 A 
ATOM     14  C   UNL     1      42.209  77.855  38.751  0.00  0.00    -0.004 A 
ATOM     15  C   UNL     1      45.742  81.506  39.147  0.00  0.00    +0.234 A 
ATOM     16  C   UNL     1      46.878  82.261  39.512  0.00  0.00    +0.234 A 
ATOM     17  C   UNL     1      47.748  81.763  40.450  0.00  0.00    +0.045 A 
ATOM     18  C   UNL     1      47.537  80.539  41.046  0.00  0.00    -0.001 A 
ATOM     19  O   UNL     1      47.037  83.475  38.886  0.00  0.00    -0.283 OA
ATOM     20  O   UNL     1      44.889  82.030  38.204  0.00  0.00    -0.283 OA
ENDROOT
TORSDOF 0
