REMARK  Name = Apraclonidine
REMARK  1 active torsions:
REMARK  status: ('A' for Active; 'I' for Inactive)
REMARK    1  A    between atoms: N_6  and  C_7
REMARK                            x       y       z     vdW  Elec       q    Type
REMARK                         _______ _______ _______ _____ _____    ______ ____
ROOT
ATOM      1  C   UNL     1      48.472  83.178  41.212  0.00  0.00    +0.094 A 
ATOM      2  C   UNL     1      49.504  82.276  41.151  0.00  0.00    +0.075 A 
ATOM      3  C   UNL     1      50.379  82.065  42.208  0.00  0.00    +0.031 A 
ATOM      4  C   UNL     1      50.224  82.781  43.385  0.00  0.00    +0.091 A 
ATOM      5  C   UNL     1      49.175  83.697  43.447  0.00  0.00    +0.031 A 
ATOM      6  C   UNL     1      48.318  83.891  42.383  0.00  0.00    +0.075 A 
ATOM      7 CL   UNL     1      47.035  85.068  42.575  0.00  0.00    -0.081 Cl
ATOM      8  N   UNL     1      51.102  82.584  44.480  0.00  0.00    -0.128 NA
ATOM      9 CL   UNL     1      49.725  81.363  39.690  0.00  0.00    -0.081 Cl
ENDROOT
BRANCH   1  15
ATOM     10  C   UNL     1      45.149  81.155  38.445  0.00  0.00    +0.141 C 
ATOM     11  C   UNL     1      45.447  80.461  39.755  0.00  0.00    +0.152 C 
ATOM     12  N   UNL     1      46.509  81.256  40.357  0.00  0.00    -0.239 NA
ATOM     13  C   UNL     1      46.626  82.383  39.745  0.00  0.00    +0.221 C 
ATOM     14  N   UNL     1      45.682  82.481  38.687  0.00  0.00    -0.204 NA
ATOM     15  N   UNL     1      47.587  83.377  40.111  0.00  0.00    -0.179 NA
ENDBRANCH   1  15
TORSDOF 1
