REMARK  Name = Aprepitant
REMARK  8 active torsions:
REMARK  status: ('A' for Active; 'I' for Inactive)
REMARK    1  A    between atoms: C_2  and  C_3
REMARK    2  A    between atoms: C_2  and  O_17
REMARK    3  A    between atoms: C_5  and  C_13
REMARK    4  A    between atoms: C_7  and  C_9
REMARK    5  A    between atoms: O_17  and  C_18
REMARK    6  A    between atoms: C_19  and  C_31
REMARK    7  A    between atoms: N_20  and  C_24
REMARK    8  A    between atoms: C_24  and  C_25
REMARK                            x       y       z     vdW  Elec       q    Type
REMARK                         _______ _______ _______ _____ _____    ______ ____
ROOT
ATOM      1  C   UNL     1      46.181  80.289  39.848  0.00  0.00    +0.255 C 
ATOM      2  C   UNL     1      44.798  79.782  40.181  0.00  0.00    +0.138 C 
ATOM      3  N   UNL     1      44.409  78.951  39.086  0.00  0.00    -0.258 NA
ATOM      4  C   UNL     1      45.319  77.930  38.733  0.00  0.00    +0.105 C 
ATOM      5  C   UNL     1      46.713  78.504  38.615  0.00  0.00    +0.162 C 
ATOM      6  O   UNL     1      47.031  79.187  39.787  0.00  0.00    -0.328 OA
ENDROOT
BRANCH   2   7
ATOM      7  C   UNL     1      44.746  78.941  41.394  0.00  0.00    -0.003 A 
ATOM      8  C   UNL     1      44.422  77.615  41.309  0.00  0.00    -0.001 A 
ATOM      9  C   UNL     1      44.362  76.786  42.422  0.00  0.00    +0.029 A 
ATOM     10  C   UNL     1      44.643  77.336  43.659  0.00  0.00    +0.140 A 
ATOM     11  C   UNL     1      44.973  78.669  43.786  0.00  0.00    +0.029 A 
ATOM     12  C   UNL     1      45.020  79.460  42.640  0.00  0.00    -0.001 A 
ATOM     13  F   UNL     1      44.597  76.558  44.792  0.00  0.00    -0.204 F 
ENDBRANCH   2   7
BRANCH   1  14
ATOM     14  O   UNL     1      46.621  81.329  40.611  0.00  0.00    -0.327 OA
BRANCH  14  16
ATOM     15  C   UNL     1      47.472  82.821  38.927  0.00  0.00    +0.037 C 
ATOM     16  C   UNL     1      47.762  81.898  40.096  0.00  0.00    +0.140 C 
BRANCH  16  17
ATOM     17  C   UNL     1      48.550  82.630  41.121  0.00  0.00    +0.005 A 
ATOM     18  C   UNL     1      49.916  82.516  41.110  0.00  0.00    +0.002 A 
ATOM     19  C   UNL     1      50.660  83.194  42.062  0.00  0.00    +0.071 A 
ATOM     20  C   UNL     1      50.028  83.976  43.011  0.00  0.00    +0.008 A 
ATOM     21  C   UNL     1      48.643  84.106  43.042  0.00  0.00    +0.071 A 
ATOM     22  C   UNL     1      47.939  83.414  42.075  0.00  0.00    +0.002 A 
BRANCH  21  23
ATOM     23  C   UNL     1      47.955  84.949  44.065  0.00  0.00    +0.419 C 
ATOM     24  F   UNL     1      48.696  86.086  44.257  0.00  0.00    -0.166 F 
ATOM     25  F   UNL     1      46.651  85.200  43.739  0.00  0.00    -0.166 F 
ATOM     26  F   UNL     1      47.983  84.209  45.250  0.00  0.00    -0.166 F 
ENDBRANCH  21  23
BRANCH  19  27
ATOM     27  C   UNL     1      52.133  83.039  42.007  0.00  0.00    +0.419 C 
ATOM     28  F   UNL     1      52.501  81.808  42.522  0.00  0.00    -0.166 F 
ATOM     29  F   UNL     1      52.501  83.132  40.669  0.00  0.00    -0.166 F 
ATOM     30  F   UNL     1      52.693  84.042  42.764  0.00  0.00    -0.166 F 
ENDBRANCH  19  27
ENDBRANCH  16  17
ENDBRANCH  14  16
ENDBRANCH   1  14
BRANCH   3  31
ATOM     31  C   UNL     1      43.566  79.481  38.124  0.00  0.00    +0.141 C 
BRANCH  31  32
ATOM     32  C   UNL     1      42.174  78.981  38.105  0.00  0.00    +0.182 A 
ATOM     33  N   UNL     1      41.100  79.798  38.056  0.00  0.00    -0.127 NA
ATOM     34  N   UNL     1      40.013  79.051  38.050  0.00  0.00    -0.087 NA
ATOM     35  C   UNL     1      40.365  77.733  38.095  0.00  0.00    +0.388 A 
ATOM     36  O   UNL     1      39.631  76.732  38.105  0.00  0.00    -0.241 OA
ATOM     37  N   UNL     1      41.700  77.742  38.127  0.00  0.00    -0.171 NA
ENDBRANCH  31  32
ENDBRANCH   3  31
TORSDOF 8
