REMARK  Name = Arbekacin
REMARK  10 active torsions:
REMARK  status: ('A' for Active; 'I' for Inactive)
REMARK    1  A    between atoms: C_4  and  O_9
REMARK    2  A    between atoms: C_6  and  C_7
REMARK    3  A    between atoms: O_9  and  C_10
REMARK    4  A    between atoms: C_13  and  N_29
REMARK    5  A    between atoms: C_14  and  O_17
REMARK    6  A    between atoms: O_17  and  C_18
REMARK    7  A    between atoms: C_22  and  C_24
REMARK    8  A    between atoms: C_30  and  C_32
REMARK    9  A    between atoms: C_32  and  C_33
REMARK   10  A    between atoms: C_33  and  C_34
REMARK                            x       y       z     vdW  Elec       q    Type
REMARK                         _______ _______ _______ _____ _____    ______ ____
ROOT
ATOM      1  C   UNL     1      41.941  77.672  38.730  0.00  0.00    +0.168 C 
ATOM      2  C   UNL     1      41.665  76.663  39.824  0.00  0.00    +0.123 C 
ATOM      3  C   UNL     1      42.021  77.297  41.126  0.00  0.00    +0.046 C 
ATOM      4  C   UNL     1      43.482  77.625  41.155  0.00  0.00    +0.127 C 
ATOM      5  C   UNL     1      44.007  78.359  39.975  0.00  0.00    +0.170 C 
ATOM      6  C   UNL     1      43.419  77.953  38.661  0.00  0.00    +0.209 C 
ATOM      7  O   UNL     1      44.045  76.771  38.267  0.00  0.00    -0.218 OA
ATOM      8  N   UNL     1      42.343  75.448  39.514  0.00  0.00    -0.130 NA
ENDROOT
BRANCH   4   9
ATOM      9  N   UNL     1      44.211  76.397  41.419  0.00  0.00    -0.202 NA
ATOM     10  C   UNL     1      44.936  76.169  42.646  0.00  0.00    +0.272 C 
ATOM     11  O   UNL     1      44.269  76.230  43.711  0.00  0.00    -0.271 OA
BRANCH  10  12
ATOM     12  C   UNL     1      46.390  75.879  42.642  0.00  0.00    +0.231 C 
ATOM     13  O   UNL     1      46.714  75.378  41.383  0.00  0.00    -0.213 OA
BRANCH  12  14
ATOM     14  C   UNL     1      46.776  74.906  43.734  0.00  0.00    +0.063 C 
BRANCH  14  15
ATOM     15  C   UNL     1      48.253  74.586  43.546  0.00  0.00    +0.112 C 
ATOM     16  N   UNL     1      48.725  73.670  44.557  0.00  0.00    -0.131 NA
ENDBRANCH  14  15
ENDBRANCH  12  14
ENDBRANCH  10  12
ENDBRANCH   4   9
BRANCH   1  17
ATOM     17  O   UNL     1      41.437  77.165  37.548  0.00  0.00    -0.328 OA
BRANCH  17  21
ATOM     18  C   UNL     1      37.612  76.306  37.460  0.00  0.00    +0.033 C 
ATOM     19  C   UNL     1      38.408  75.203  36.794  0.00  0.00    +0.027 C 
ATOM     20  C   UNL     1      39.867  75.516  36.996  0.00  0.00    +0.148 C 
ATOM     21  C   UNL     1      40.078  76.874  37.628  0.00  0.00    +0.253 C 
ATOM     22  O   UNL     1      39.375  77.879  37.002  0.00  0.00    -0.330 OA
ATOM     23  C   UNL     1      38.034  77.630  36.869  0.00  0.00    +0.137 C 
ATOM     24  N   UNL     1      40.542  75.474  35.708  0.00  0.00    -0.128 NA
BRANCH  23  25
ATOM     25  C   UNL     1      37.577  77.667  35.419  0.00  0.00    +0.139 C 
ATOM     26  N   UNL     1      37.630  79.018  34.894  0.00  0.00    -0.129 NA
ENDBRANCH  23  25
ENDBRANCH  17  21
ENDBRANCH   1  17
BRANCH   5  27
ATOM     27  O   UNL     1      43.813  79.755  40.078  0.00  0.00    -0.327 OA
BRANCH  27  28
ATOM     28  C   UNL     1      45.000  80.446  40.276  0.00  0.00    +0.268 C 
ATOM     29  C   UNL     1      45.338  81.258  39.041  0.00  0.00    +0.228 C 
ATOM     30  C   UNL     1      46.841  81.360  38.868  0.00  0.00    +0.160 C 
ATOM     31  C   UNL     1      47.461  81.429  40.238  0.00  0.00    +0.202 C 
ATOM     32  C   UNL     1      47.236  80.114  40.922  0.00  0.00    +0.182 C 
ATOM     33  O   UNL     1      46.010  79.619  40.661  0.00  0.00    -0.326 OA
ATOM     34  O   UNL     1      46.784  82.413  40.990  0.00  0.00    -0.219 OA
ATOM     35  N   UNL     1      47.115  82.609  38.187  0.00  0.00    -0.127 NA
ATOM     36  O   UNL     1      44.804  82.535  39.081  0.00  0.00    -0.216 OA
BRANCH  32  37
ATOM     37  C   UNL     1      47.338  80.389  42.417  0.00  0.00    +0.214 C 
ATOM     38  O   UNL     1      48.294  81.365  42.681  0.00  0.00    -0.218 OA
ENDBRANCH  32  37
ENDBRANCH  27  28
ENDBRANCH   5  27
TORSDOF 10
