REMARK  Name = Arbidol
REMARK  8 active torsions:
REMARK  status: ('A' for Active; 'I' for Inactive)
REMARK    1  A    between atoms: C_2  and  O_3
REMARK    2  A    between atoms: O_3  and  C_4
REMARK    3  A    between atoms: C_4  and  C_6
REMARK    4  A    between atoms: C_7  and  C_22
REMARK    5  A    between atoms: C_13  and  C_15
REMARK    6  A    between atoms: C_15  and  N_16
REMARK    7  A    between atoms: C_22  and  S_23
REMARK    8  A    between atoms: S_23  and  C_24
REMARK                            x       y       z     vdW  Elec       q    Type
REMARK                         _______ _______ _______ _____ _____    ______ ____
ROOT
ATOM      1  C   UNL     1      45.438  79.743  41.353  0.00  0.00    +0.089 A 
ATOM      2  C   UNL     1      45.844  80.954  40.772  0.00  0.00    +0.055 A 
ATOM      3  N   UNL     1      45.279  81.058  39.581  0.00  0.00    -0.328 N 
ATOM      4  C   UNL     1      44.507  79.988  39.311  0.00  0.00    +0.060 A 
ATOM      5  C   UNL     1      43.727  79.610  38.243  0.00  0.00    +0.027 A 
ATOM      6  C   UNL     1      43.019  78.431  38.211  0.00  0.00    +0.075 A 
ATOM      7  C   UNL     1      43.108  77.612  39.297  0.00  0.00    +0.199 A 
ATOM      8  C   UNL     1      43.901  77.989  40.392  0.00  0.00    +0.035 A 
ATOM      9  C   UNL     1      44.608  79.163  40.426  0.00  0.00    +0.024 A 
ATOM     10  O   UNL     1      42.416  76.418  39.313  0.00  0.00    -0.286 OA
ATOM     11 BR   UNL     1      41.946  77.966  36.677  0.00  0.00    -0.046 Br
ATOM     12  C   UNL     1      45.442  82.162  38.657  0.00  0.00    +0.130 C 
ENDROOT
BRANCH   1  13
ATOM     13  C   UNL     1      45.841  79.257  42.661  0.00  0.00    +0.342 C 
ATOM     14  O   UNL     1      46.687  79.829  43.394  0.00  0.00    -0.245 OA
BRANCH  13  15
ATOM     15  O   UNL     1      45.298  78.075  43.211  0.00  0.00    -0.445 OA
BRANCH  15  17
ATOM     16  C   UNL     1      44.816  76.622  45.102  0.00  0.00    +0.051 C 
ATOM     17  C   UNL     1      45.802  77.484  44.370  0.00  0.00    +0.209 C 
ENDBRANCH  15  17
ENDBRANCH  13  15
ENDBRANCH   1  13
BRANCH   8  18
ATOM     18  C   UNL     1      43.942  77.049  41.528  0.00  0.00    +0.102 C 
BRANCH  18  19
ATOM     19  N   UNL     1      45.151  76.252  41.407  0.00  0.00    -0.266 NA
ATOM     20  C   UNL     1      45.285  75.533  40.184  0.00  0.00    +0.090 C 
ATOM     21  C   UNL     1      45.321  75.363  42.538  0.00  0.00    +0.090 C 
ENDBRANCH  18  19
ENDBRANCH   8  18
BRANCH   2  22
ATOM     22  C   UNL     1      46.754  81.909  41.433  0.00  0.00    +0.106 C 
BRANCH  22  23
ATOM     23  S   UNL     1      48.420  81.192  41.447  0.00  0.00    -0.107 S 
BRANCH  23  24
ATOM     24  C   UNL     1      49.580  82.341  42.122  0.00  0.00    +0.026 A 
ATOM     25  C   UNL     1      49.199  83.397  42.936  0.00  0.00    +0.006 A 
ATOM     26  C   UNL     1      50.113  84.290  43.459  0.00  0.00    +0.001 A 
ATOM     27  C   UNL     1      51.458  84.147  43.175  0.00  0.00    +0.000 A 
ATOM     28  C   UNL     1      51.839  83.086  42.358  0.00  0.00    +0.001 A 
ATOM     29  C   UNL     1      50.923  82.204  41.843  0.00  0.00    +0.006 A 
ENDBRANCH  23  24
ENDBRANCH  22  23
ENDBRANCH   2  22
TORSDOF 8
