REMARK  Name = Arbutamine
REMARK  8 active torsions:
REMARK  status: ('A' for Active; 'I' for Inactive)
REMARK    1  A    between atoms: C_6  and  C_7
REMARK    2  A    between atoms: C_7  and  C_8
REMARK    3  A    between atoms: C_8  and  C_9
REMARK    4  A    between atoms: C_9  and  C_10
REMARK    5  A    between atoms: C_10  and  N_11
REMARK    6  A    between atoms: N_11  and  C_12
REMARK    7  A    between atoms: C_12  and  C_13
REMARK    8  A    between atoms: C_13  and  C_14
REMARK                            x       y       z     vdW  Elec       q    Type
REMARK                         _______ _______ _______ _____ _____    ______ ____
ROOT
ATOM      1  N   UNL     1      46.817  79.853  41.209  0.00  0.00    -0.215 NA
ENDROOT
BRANCH   1   2
ATOM      2  C   UNL     1      46.315  79.348  39.952  0.00  0.00    +0.089 C 
BRANCH   2   3
ATOM      3  C   UNL     1      46.285  77.847  39.885  0.00  0.00    +0.019 C 
BRANCH   3   4
ATOM      4  C   UNL     1      45.313  77.231  40.834  0.00  0.00    +0.006 C 
BRANCH   4   5
ATOM      5  C   UNL     1      44.120  78.113  41.096  0.00  0.00    +0.026 C 
BRANCH   5  11
ATOM      6  C   UNL     1      42.846  78.364  38.974  0.00  0.00    -0.001 A 
ATOM      7  C   UNL     1      41.893  77.987  38.053  0.00  0.00    +0.042 A 
ATOM      8  C   UNL     1      41.107  76.870  38.259  0.00  0.00    +0.196 A 
ATOM      9  C   UNL     1      41.325  76.157  39.423  0.00  0.00    +0.042 A 
ATOM     10  C   UNL     1      42.288  76.536  40.354  0.00  0.00    -0.001 A 
ATOM     11  C   UNL     1      43.058  77.644  40.137  0.00  0.00    -0.022 A 
ATOM     12  O   UNL     1      40.139  76.489  37.324  0.00  0.00    -0.287 OA
ENDBRANCH   5  11
ENDBRANCH   4   5
ENDBRANCH   3   4
ENDBRANCH   2   3
ENDBRANCH   1   2
BRANCH   1  13
ATOM     13  C   UNL     1      47.650  80.999  41.045  0.00  0.00    +0.126 C 
BRANCH  13  14
ATOM     14  C   UNL     1      47.248  82.203  41.848  0.00  0.00    +0.192 C 
ATOM     15  O   UNL     1      46.279  81.952  42.798  0.00  0.00    -0.217 OA
BRANCH  14  16
ATOM     16  C   UNL     1      48.438  82.896  42.340  0.00  0.00    +0.013 A 
ATOM     17  C   UNL     1      49.687  82.359  42.046  0.00  0.00    +0.044 A 
ATOM     18  C   UNL     1      50.859  82.953  42.471  0.00  0.00    +0.234 A 
ATOM     19  C   UNL     1      50.793  84.112  43.208  0.00  0.00    +0.234 A 
ATOM     20  C   UNL     1      49.539  84.634  43.491  0.00  0.00    +0.045 A 
ATOM     21  C   UNL     1      48.375  84.061  43.080  0.00  0.00    +0.002 A 
ATOM     22  O   UNL     1      51.948  84.755  43.663  0.00  0.00    -0.283 OA
ATOM     23  O   UNL     1      52.106  82.389  42.162  0.00  0.00    -0.283 OA
ENDBRANCH  14  16
ENDBRANCH  13  14
ENDBRANCH   1  13
TORSDOF 8
