REMARK  Name = Arformoterol
REMARK  8 active torsions:
REMARK  status: ('A' for Active; 'I' for Inactive)
REMARK    1  A    between atoms: C_2  and  C_3
REMARK    2  A    between atoms: C_2  and  N_12
REMARK    3  A    between atoms: C_3  and  C_4
REMARK    4  A    between atoms: C_7  and  O_10
REMARK    5  A    between atoms: N_12  and  C_13
REMARK    6  A    between atoms: C_13  and  C_14
REMARK    7  A    between atoms: C_14  and  C_15
REMARK    8  A    between atoms: C_17  and  N_22
REMARK                            x       y       z     vdW  Elec       q    Type
REMARK                         _______ _______ _______ _____ _____    ______ ____
ROOT
ATOM      1  C   UNL     1      46.298  80.304  39.238  0.00  0.00    +0.126 C 
ENDROOT
BRANCH   1   2
ATOM      2  C   UNL     1      44.800  80.646  39.196  0.00  0.00    +0.192 C 
ATOM      3  O   UNL     1      44.537  81.404  38.063  0.00  0.00    -0.217 OA
BRANCH   2   4
ATOM      4  C   UNL     1      44.084  79.353  39.180  0.00  0.00    +0.011 A 
ATOM      5  C   UNL     1      42.935  79.245  38.387  0.00  0.00    +0.018 A 
ATOM      6  C   UNL     1      42.282  78.042  38.381  0.00  0.00    +0.112 A 
ATOM      7  C   UNL     1      42.771  76.962  39.157  0.00  0.00    +0.211 A 
ATOM      8  C   UNL     1      43.888  77.110  39.911  0.00  0.00    +0.043 A 
ATOM      9  C   UNL     1      44.569  78.316  39.936  0.00  0.00    +0.002 A 
ATOM     10  O   UNL     1      42.085  75.729  39.139  0.00  0.00    -0.285 OA
BRANCH   6  11
ATOM     11  N   UNL     1      41.124  77.811  37.630  0.00  0.00    -0.168 NA
ATOM     12  C   UNL     1      40.345  78.759  36.956  0.00  0.00    +0.325 C 
ATOM     13  O   UNL     1      39.384  78.415  36.256  0.00  0.00    -0.263 OA
ENDBRANCH   6  11
ENDBRANCH   2   4
ENDBRANCH   1   2
BRANCH   1  14
ATOM     14  N   UNL     1      46.941  81.280  40.050  0.00  0.00    -0.216 NA
BRANCH  14  16
ATOM     15  C   UNL     1      46.099  79.618  41.555  0.00  0.00    +0.019 C 
ATOM     16  C   UNL     1      46.862  80.935  41.428  0.00  0.00    +0.077 C 
BRANCH  16  17
ATOM     17  C   UNL     1      48.210  80.805  42.109  0.00  0.00    +0.044 C 
BRANCH  17  18
ATOM     18  C   UNL     1      48.736  82.076  42.619  0.00  0.00    -0.021 A 
ATOM     19  C   UNL     1      50.059  82.394  42.400  0.00  0.00    -0.001 A 
ATOM     20  C   UNL     1      50.590  83.582  42.868  0.00  0.00    +0.037 A 
ATOM     21  C   UNL     1      49.785  84.456  43.562  0.00  0.00    +0.139 A 
ATOM     22  C   UNL     1      48.463  84.169  43.798  0.00  0.00    +0.037 A 
ATOM     23  C   UNL     1      47.953  82.965  43.315  0.00  0.00    -0.001 A 
BRANCH  21  24
ATOM     24  O   UNL     1      50.344  85.646  44.024  0.00  0.00    -0.471 OA
ATOM     25  C   UNL     1      51.586  85.658  44.710  0.00  0.00    +0.252 C 
ENDBRANCH  21  24
ENDBRANCH  17  18
ENDBRANCH  16  17
ENDBRANCH  14  16
ENDBRANCH   1  14
TORSDOF 8
