REMARK  Name = Argatroban
REMARK  9 active torsions:
REMARK  status: ('A' for Active; 'I' for Inactive)
REMARK    1  A    between atoms: C_6  and  C_8
REMARK    2  A    between atoms: C_11  and  C_13
REMARK    3  A    between atoms: C_13  and  C_14
REMARK    4  A    between atoms: C_13  and  N_21
REMARK    5  A    between atoms: C_14  and  C_15
REMARK    6  A    between atoms: C_15  and  C_16
REMARK    7  A    between atoms: C_16  and  N_17
REMARK    8  A    between atoms: N_21  and  S_22
REMARK    9  A    between atoms: S_22  and  C_25
REMARK                            x       y       z     vdW  Elec       q    Type
REMARK                         _______ _______ _______ _____ _____    ______ ____
ROOT
ATOM      1  C   UNL     1      45.326  79.378  39.857  0.00  0.00    +0.174 C 
ENDROOT
BRANCH   1   9
ATOM      2  C   UNL     1      44.627  75.805  45.487  0.00  0.00    +0.000 C 
ATOM      3  C   UNL     1      45.102  76.494  44.241  0.00  0.00    +0.004 C 
ATOM      4  C   UNL     1      44.274  77.728  43.984  0.00  0.00    +0.022 C 
ATOM      5  C   UNL     1      44.171  78.058  42.513  0.00  0.00    +0.094 C 
ATOM      6  N   UNL     1      45.191  77.535  41.689  0.00  0.00    -0.270 N 
ATOM      7  C   UNL     1      45.635  76.172  41.908  0.00  0.00    +0.179 C 
ATOM      8  C   UNL     1      44.921  75.529  43.089  0.00  0.00    +0.032 C 
ATOM      9  C   UNL     1      45.797  78.283  40.669  0.00  0.00    +0.244 C 
ATOM     10  O   UNL     1      47.026  77.923  40.400  0.00  0.00    -0.273 OA
BRANCH   7  11
ATOM     11  C   UNL     1      45.596  75.314  40.725  0.00  0.00    +0.382 C 
ATOM     12  O   UNL     1      44.905  75.561  39.730  0.00  0.00    -0.244 OA
ATOM     13  O   UNL     1      46.377  74.169  40.733  0.00  0.00    -0.244 OA
ENDBRANCH   7  11
ENDBRANCH   1   9
BRANCH   1  14
ATOM     14  C   UNL     1      44.256  79.082  38.837  0.00  0.00    +0.031 C 
BRANCH  14  15
ATOM     15  C   UNL     1      43.103  78.234  39.109  0.00  0.00    +0.028 C 
BRANCH  15  16
ATOM     16  C   UNL     1      42.149  77.977  37.986  0.00  0.00    +0.129 C 
BRANCH  16  17
ATOM     17  N   UNL     1      41.095  79.015  37.957  0.00  0.00    -0.234 NA
ATOM     18  C   UNL     1      40.180  78.966  37.051  0.00  0.00    +0.284 C 
ATOM     19  N   UNL     1      39.216  79.997  36.927  0.00  0.00    -0.104 NA
ATOM     20  N   UNL     1      40.166  77.850  36.180  0.00  0.00    -0.104 NA
ENDBRANCH  16  17
ENDBRANCH  15  16
ENDBRANCH  14  15
ENDBRANCH   1  14
BRANCH   1  21
ATOM     21  N   UNL     1      46.410  79.997  39.055  0.00  0.00    -0.070 NA
BRANCH  21  22
ATOM     22  S   UNL     1      46.259  81.695  39.120  0.00  0.00    +0.078 S 
ATOM     23  O   UNL     1      46.977  82.347  37.938  0.00  0.00    -0.152 OA
ATOM     24  O   UNL     1      44.786  82.035  38.847  0.00  0.00    -0.152 OA
BRANCH  22  25
ATOM     25  C   UNL     1      46.755  82.448  40.599  0.00  0.00    +0.138 A 
ATOM     26  C   UNL     1      45.818  83.236  41.291  0.00  0.00    +0.021 A 
ATOM     27  C   UNL     1      46.141  83.893  42.442  0.00  0.00    +0.001 A 
ATOM     28  C   UNL     1      47.413  83.799  42.960  0.00  0.00    -0.003 A 
ATOM     29  C   UNL     1      48.368  83.028  42.303  0.00  0.00    -0.006 A 
ATOM     30  C   UNL     1      48.003  82.369  41.131  0.00  0.00    +0.080 A 
ATOM     31  N   UNL     1      48.991  81.557  40.524  0.00  0.00    -0.237 NA
ATOM     32  C   UNL     1      50.112  81.121  41.291  0.00  0.00    +0.113 C 
ATOM     33  C   UNL     1      50.713  82.196  42.148  0.00  0.00    +0.026 C 
ATOM     34  C   UNL     1      49.694  82.975  42.920  0.00  0.00    +0.029 C 
ATOM     35  C   UNL     1      51.637  83.126  41.398  0.00  0.00    +0.002 C 
ENDBRANCH  22  25
ENDBRANCH  21  22
ENDBRANCH   1  21
TORSDOF 9
