REMARK  Name = Arglabin
REMARK  0 active torsions:
REMARK  status: ('A' for Active; 'I' for Inactive)
REMARK                            x       y       z     vdW  Elec       q    Type
REMARK                         _______ _______ _______ _____ _____    ______ ____
ROOT
ATOM      1  C   UNL     1      42.296  79.625  38.617  0.00  0.00    +0.026 C 
ATOM      2  C   UNL     1      43.095  78.709  39.524  0.00  0.00    -0.043 C 
ATOM      3  C   UNL     1      42.991  77.391  39.547  0.00  0.00    -0.032 C 
ATOM      4  C   UNL     1      43.935  76.811  40.568  0.00  0.00    +0.055 C 
ATOM      5  C   UNL     1      44.960  77.952  40.716  0.00  0.00    +0.126 C 
ATOM      6  C   UNL     1      44.107  79.125  40.528  0.00  0.00    +0.086 C 
ATOM      7  C   UNL     1      44.749  80.367  40.034  0.00  0.00    +0.179 C 
ATOM      8  C   UNL     1      45.796  80.981  40.889  0.00  0.00    +0.069 C 
ATOM      9  C   UNL     1      46.887  80.075  41.326  0.00  0.00    +0.011 C 
ATOM     10  C   UNL     1      46.507  79.055  42.344  0.00  0.00    +0.030 C 
ATOM     11  C   UNL     1      45.964  77.851  41.644  0.00  0.00    +0.116 C 
ATOM     12  O   UNL     1      46.212  77.795  40.192  0.00  0.00    -0.358 OA
ATOM     13  C   UNL     1      46.352  76.509  42.255  0.00  0.00    +0.032 C 
ATOM     14  C   UNL     1      46.383  81.978  39.953  0.00  0.00    +0.057 C 
ATOM     15  C   UNL     1      47.067  83.070  40.209  0.00  0.00    +0.002 C 
ATOM     16  C   UNL     1      46.042  81.498  38.623  0.00  0.00    +0.337 C 
ATOM     17  O   UNL     1      46.311  82.076  37.514  0.00  0.00    -0.245 OA
ATOM     18  O   UNL     1      45.357  80.274  38.774  0.00  0.00    -0.449 OA
ENDROOT
TORSDOF 0
