REMARK  Name = Armodafinil
REMARK  5 active torsions:
REMARK  status: ('A' for Active; 'I' for Inactive)
REMARK    1  A    between atoms: C_4  and  C_7
REMARK    2  A    between atoms: C_7  and  C_8
REMARK    3  A    between atoms: C_7  and  S_14
REMARK    4  A    between atoms: S_14  and  C_16
REMARK    5  A    between atoms: C_16  and  C_17
REMARK                            x       y       z     vdW  Elec       q    Type
REMARK                         _______ _______ _______ _____ _____    ______ ____
ROOT
ATOM      1  C   UNL     1      45.083  78.461  40.228  0.00  0.00    +0.124 C 
ENDROOT
BRANCH   1   5
ATOM      2  C   UNL     1      41.341  78.293  38.248  0.00  0.00    -0.000 A 
ATOM      3  C   UNL     1      41.453  78.903  39.477  0.00  0.00    -0.000 A 
ATOM      4  C   UNL     1      42.649  78.977  40.149  0.00  0.00    -0.003 A 
ATOM      5  C   UNL     1      43.761  78.421  39.565  0.00  0.00    -0.006 A 
ATOM      6  C   UNL     1      43.637  77.814  38.335  0.00  0.00    -0.003 A 
ATOM      7  C   UNL     1      42.446  77.731  37.649  0.00  0.00    -0.000 A 
ENDBRANCH   1   5
BRANCH   1   8
ATOM      8  C   UNL     1      45.078  77.487  41.367  0.00  0.00    -0.006 A 
ATOM      9  C   UNL     1      44.305  77.670  42.491  0.00  0.00    -0.003 A 
ATOM     10  C   UNL     1      44.309  76.766  43.533  0.00  0.00    -0.000 A 
ATOM     11  C   UNL     1      45.093  75.633  43.491  0.00  0.00    -0.000 A 
ATOM     12  C   UNL     1      45.873  75.436  42.371  0.00  0.00    -0.000 A 
ATOM     13  C   UNL     1      45.865  76.344  41.333  0.00  0.00    -0.003 A 
ENDBRANCH   1   8
BRANCH   1  14
ATOM     14  S   UNL     1      45.395  80.111  40.938  0.00  0.00    +0.059 S 
ATOM     15  O   UNL     1      46.411  79.843  42.077  0.00  0.00    -0.255 OA
BRANCH  14  16
ATOM     16  C   UNL     1      46.467  80.893  39.682  0.00  0.00    +0.180 C 
BRANCH  16  17
ATOM     17  C   UNL     1      45.750  81.921  38.925  0.00  0.00    +0.274 C 
ATOM     18  O   UNL     1      44.551  81.775  38.600  0.00  0.00    -0.271 OA
ATOM     19  N   UNL     1      46.456  83.099  38.563  0.00  0.00    -0.087 NA
ENDBRANCH  16  17
ENDBRANCH  14  16
ENDBRANCH   1  14
TORSDOF 5
