REMARK  Name = ARN-509
REMARK  5 active torsions:
REMARK  status: ('A' for Active; 'I' for Inactive)
REMARK    1  A    between atoms: C_3  and  C_5
REMARK    2  A    between atoms: C_8  and  N_11
REMARK    3  A    between atoms: N_14  and  C_21
REMARK    4  A    between atoms: C_23  and  C_29
REMARK    5  A    between atoms: C_24  and  C_27
REMARK                            x       y       z     vdW  Elec       q    Type
REMARK                         _______ _______ _______ _____ _____    ______ ____
ROOT
ATOM      1  N   UNL     1      45.057  79.058  40.176  0.00  0.00    -0.265 N 
ATOM      2  C   UNL     1      45.978  80.144  39.896  0.00  0.00    +0.152 C 
ATOM      3  S   UNL     1      45.990  80.954  38.465  0.00  0.00    -0.017 S 
ATOM      4  N   UNL     1      46.826  80.365  41.008  0.00  0.00    -0.217 N 
ATOM      5  C   UNL     1      46.398  79.384  41.981  0.00  0.00    +0.251 C 
ATOM      6  O   UNL     1      46.627  79.457  43.218  0.00  0.00    -0.272 OA
ATOM      7  C   UNL     1      45.677  78.346  41.234  0.00  0.00    +0.133 C 
ATOM      8  C   UNL     1      44.722  77.635  42.188  0.00  0.00    +0.028 C 
ATOM      9  C   UNL     1      45.031  76.372  41.389  0.00  0.00    +0.004 C 
ATOM     10  C   UNL     1      46.337  77.059  40.935  0.00  0.00    +0.028 C 
ENDROOT
BRANCH   1  14
ATOM     11  C   UNL     1      41.461  78.547  38.098  0.00  0.00    +0.083 A 
ATOM     12  C   UNL     1      41.981  77.520  38.837  0.00  0.00    +0.146 A 
ATOM     13  C   UNL     1      43.165  77.673  39.523  0.00  0.00    +0.045 A 
ATOM     14  C   UNL     1      43.843  78.874  39.470  0.00  0.00    +0.055 A 
ATOM     15  C   UNL     1      43.337  79.924  38.731  0.00  0.00    +0.015 A 
ATOM     16  C   UNL     1      42.154  79.746  38.056  0.00  0.00    +0.008 A 
ATOM     17  F   UNL     1      41.373  76.325  38.947  0.00  0.00    -0.204 F 
BRANCH  11  20
ATOM     18  C   UNL     1      38.822  76.933  35.937  0.00  0.00    +0.139 C 
ATOM     19  N   UNL     1      39.476  77.286  37.199  0.00  0.00    -0.200 NA
ATOM     20  C   UNL     1      40.241  78.447  37.340  0.00  0.00    +0.267 C 
ATOM     21  O   UNL     1      39.811  79.497  36.740  0.00  0.00    -0.268 OA
ENDBRANCH  11  20
ENDBRANCH   1  14
BRANCH   4  22
ATOM     22  C   UNL     1      47.891  81.304  41.195  0.00  0.00    +0.079 A 
ATOM     23  C   UNL     1      47.718  82.498  41.852  0.00  0.00    +0.023 A 
ATOM     24  C   UNL     1      48.752  83.424  42.024  0.00  0.00    +0.100 A 
ATOM     25  C   UNL     1      49.984  83.108  41.508  0.00  0.00    +0.153 A 
ATOM     26  N   UNL     1      50.174  81.950  40.865  0.00  0.00    -0.232 NA
ATOM     27  C   UNL     1      49.160  81.078  40.714  0.00  0.00    +0.115 A 
BRANCH  24  28
ATOM     28  C   UNL     1      48.528  84.707  42.738  0.00  0.00    +0.421 C 
ATOM     29  F   UNL     1      47.184  85.029  42.762  0.00  0.00    -0.166 F 
ATOM     30  F   UNL     1      49.285  85.702  42.148  0.00  0.00    -0.166 F 
ATOM     31  F   UNL     1      48.972  84.539  44.035  0.00  0.00    -0.166 F 
ENDBRANCH  24  28
BRANCH  25  32
ATOM     32  C   UNL     1      51.091  84.009  41.637  0.00  0.00    +0.120 C 
ATOM     33  N   UNL     1      51.993  84.722  41.730  0.00  0.00    -0.189 NA
ENDBRANCH  25  32
ENDBRANCH   4  22
TORSDOF 5
