REMARK  Name = Artemisinin
REMARK  0 active torsions:
REMARK  status: ('A' for Active; 'I' for Inactive)
REMARK                            x       y       z     vdW  Elec       q    Type
REMARK                         _______ _______ _______ _____ _____    ______ ____
ROOT
ATOM      1  C   UNL     1      48.721  79.282  43.054  0.00  0.00    +0.000 C 
ATOM      2  C   UNL     1      47.362  79.864  43.120  0.00  0.00    +0.003 C 
ATOM      3  C   UNL     1      46.286  79.030  42.476  0.00  0.00    +0.000 C 
ATOM      4  C   UNL     1      45.675  79.690  41.264  0.00  0.00    +0.003 C 
ATOM      5  C   UNL     1      46.835  80.252  40.435  0.00  0.00    +0.045 C 
ATOM      6  C   UNL     1      46.429  80.455  39.031  0.00  0.00    +0.102 C 
ATOM      7  C   UNL     1      46.149  81.838  38.640  0.00  0.00    +0.318 C 
ATOM      8  O   UNL     1      45.690  82.060  37.499  0.00  0.00    -0.250 OA
ATOM      9  O   UNL     1      46.388  82.844  39.509  0.00  0.00    -0.422 OA
ATOM     10  C   UNL     1      47.105  82.752  40.702  0.00  0.00    +0.320 C 
ATOM     11  C   UNL     1      47.522  81.387  41.117  0.00  0.00    +0.191 C 
ATOM     12  C   UNL     1      47.235  81.261  42.601  0.00  0.00    +0.034 C 
ATOM     13  C   UNL     1      47.961  82.194  43.478  0.00  0.00    +0.008 C 
ATOM     14  C   UNL     1      48.429  83.474  42.877  0.00  0.00    +0.059 C 
ATOM     15  C   UNL     1      49.131  83.302  41.554  0.00  0.00    +0.222 C 
ATOM     16  O   UNL     1      48.250  83.546  40.537  0.00  0.00    -0.296 OA
ATOM     17  O   UNL     1      49.656  82.012  41.544  0.00  0.00    -0.197 OA
ATOM     18  O   UNL     1      48.893  81.263  40.836  0.00  0.00    -0.217 OA
ATOM     19  C   UNL     1      50.298  84.255  41.429  0.00  0.00    +0.064 C 
ATOM     20  C   UNL     1      45.164  79.662  38.664  0.00  0.00    +0.012 C 
ENDROOT
TORSDOF 0
