REMARK  Name = Artesunate
REMARK  5 active torsions:
REMARK  status: ('A' for Active; 'I' for Inactive)
REMARK    1  A    between atoms: C_7  and  O_19
REMARK    2  A    between atoms: O_19  and  C_20
REMARK    3  A    between atoms: C_20  and  C_22
REMARK    4  A    between atoms: C_22  and  C_23
REMARK    5  A    between atoms: C_23  and  C_24
REMARK                            x       y       z     vdW  Elec       q    Type
REMARK                         _______ _______ _______ _____ _____    ______ ____
ROOT
ATOM      1  C   UNL     1      48.896  84.299  44.724  0.00  0.00    +0.000 C 
ATOM      2  C   UNL     1      48.329  83.635  43.454  0.00  0.00    +0.003 C 
ATOM      3  C   UNL     1      48.218  84.721  42.433  0.00  0.00    +0.000 C 
ATOM      4  C   UNL     1      48.226  84.188  40.992  0.00  0.00    +0.003 C 
ATOM      5  C   UNL     1      48.007  82.741  41.067  0.00  0.00    +0.039 C 
ATOM      6  C   UNL     1      47.511  82.015  39.864  0.00  0.00    +0.073 C 
ATOM      7  C   UNL     1      47.010  80.654  40.376  0.00  0.00    +0.292 C 
ATOM      8  O   UNL     1      47.575  80.366  41.641  0.00  0.00    -0.293 OA
ATOM      9  C   UNL     1      48.923  80.611  41.552  0.00  0.00    +0.268 C 
ATOM     10  C   UNL     1      49.224  82.081  41.681  0.00  0.00    +0.178 C 
ATOM     11  C   UNL     1      49.413  82.643  43.022  0.00  0.00    +0.033 C 
ATOM     12  C   UNL     1      49.716  81.638  44.115  0.00  0.00    +0.008 C 
ATOM     13  C   UNL     1      51.128  81.141  43.750  0.00  0.00    +0.059 C 
ATOM     14  C   UNL     1      50.992  80.556  42.356  0.00  0.00    +0.221 C 
ATOM     15  O   UNL     1      49.744  79.893  42.358  0.00  0.00    -0.306 OA
ATOM     16  O   UNL     1      51.237  81.375  41.335  0.00  0.00    -0.197 OA
ATOM     17  O   UNL     1      50.395  82.260  40.954  0.00  0.00    -0.218 OA
ATOM     18  C   UNL     1      52.023  79.414  42.298  0.00  0.00    +0.064 C 
ATOM     19  C   UNL     1      46.277  82.748  39.358  0.00  0.00    +0.007 C 
ENDROOT
BRANCH   7  20
ATOM     20  O   UNL     1      45.624  80.568  40.378  0.00  0.00    -0.424 OA
BRANCH  20  21
ATOM     21  C   UNL     1      44.851  80.223  39.297  0.00  0.00    +0.319 C 
ATOM     22  O   UNL     1      44.922  80.949  38.268  0.00  0.00    -0.250 OA
BRANCH  21  23
ATOM     23  C   UNL     1      43.980  79.028  39.387  0.00  0.00    +0.121 C 
BRANCH  23  24
ATOM     24  C   UNL     1      43.138  78.904  38.110  0.00  0.00    +0.126 C 
BRANCH  24  25
ATOM     25  C   UNL     1      42.200  77.749  38.252  0.00  0.00    +0.365 C 
ATOM     26  O   UNL     1      42.260  76.965  39.234  0.00  0.00    -0.246 OA
ATOM     27  O   UNL     1      41.225  77.504  37.297  0.00  0.00    -0.246 OA
ENDBRANCH  24  25
ENDBRANCH  23  24
ENDBRANCH  21  23
ENDBRANCH  20  21
ENDBRANCH   7  20
TORSDOF 5
