REMARK  Name = ARZOXIFENE
REMARK  8 active torsions:
REMARK  status: ('A' for Active; 'I' for Inactive)
REMARK    1  A    between atoms: O_2  and  C_3
REMARK    2  A    between atoms: C_6  and  C_9
REMARK    3  A    between atoms: C_10  and  O_19
REMARK    4  A    between atoms: O_19  and  C_20
REMARK    5  A    between atoms: C_23  and  O_26
REMARK    6  A    between atoms: O_26  and  C_27
REMARK    7  A    between atoms: C_27  and  C_28
REMARK    8  A    between atoms: C_28  and  N_29
REMARK                            x       y       z     vdW  Elec       q    Type
REMARK                         _______ _______ _______ _____ _____    ______ ____
ROOT
ATOM      1  C   UNL     1      48.347  81.269  41.499  0.00  0.00    +0.064 A 
ATOM      2  C   UNL     1      47.149  80.636  41.513  0.00  0.00    +0.152 A 
ATOM      3  C   UNL     1      46.315  80.814  40.453  0.00  0.00    +0.041 A 
ATOM      4  C   UNL     1      46.751  81.620  39.447  0.00  0.00    +0.036 A 
ATOM      5  S   UNL     1      48.291  82.114  39.979  0.00  0.00    -0.084 S 
ATOM      6  C   UNL     1      45.974  81.876  38.303  0.00  0.00    +0.049 A 
ATOM      7  C   UNL     1      44.730  81.316  38.153  0.00  0.00    +0.196 A 
ATOM      8  C   UNL     1      44.286  80.502  39.166  0.00  0.00    +0.042 A 
ATOM      9  C   UNL     1      45.040  80.254  40.275  0.00  0.00    +0.007 A 
ATOM     10  O   UNL     1      43.917  81.524  37.060  0.00  0.00    -0.287 OA
ENDROOT
BRANCH   1  14
ATOM     11  C   UNL     1      51.625  81.256  44.189  0.00  0.00    +0.139 A 
ATOM     12  C   UNL     1      51.095  80.065  43.723  0.00  0.00    +0.037 A 
ATOM     13  C   UNL     1      50.025  80.098  42.858  0.00  0.00    +0.004 A 
ATOM     14  C   UNL     1      49.468  81.309  42.443  0.00  0.00    +0.009 A 
ATOM     15  C   UNL     1      49.989  82.447  42.899  0.00  0.00    +0.004 A 
ATOM     16  C   UNL     1      51.080  82.449  43.783  0.00  0.00    +0.037 A 
BRANCH  11  18
ATOM     17  C   UNL     1      52.635  80.262  46.126  0.00  0.00    +0.252 C 
ATOM     18  O   UNL     1      52.705  81.190  45.061  0.00  0.00    -0.471 OA
ENDBRANCH  11  18
ENDBRANCH   1  14
BRANCH   2  19
ATOM     19  O   UNL     1      46.816  79.806  42.638  0.00  0.00    -0.453 OA
BRANCH  19  20
ATOM     20  C   UNL     1      46.117  78.614  42.383  0.00  0.00    +0.146 A 
ATOM     21  C   UNL     1      44.978  78.259  43.067  0.00  0.00    +0.041 A 
ATOM     22  C   UNL     1      44.303  77.078  42.802  0.00  0.00    +0.040 A 
ATOM     23  C   UNL     1      44.783  76.215  41.812  0.00  0.00    +0.139 A 
ATOM     24  C   UNL     1      45.934  76.590  41.131  0.00  0.00    +0.040 A 
ATOM     25  C   UNL     1      46.606  77.781  41.406  0.00  0.00    +0.041 A 
BRANCH  23  26
ATOM     26  O   UNL     1      44.131  75.023  41.521  0.00  0.00    -0.474 OA
BRANCH  26  27
ATOM     27  C   UNL     1      44.691  73.794  41.916  0.00  0.00    +0.223 C 
BRANCH  27  28
ATOM     28  C   UNL     1      43.914  72.584  41.549  0.00  0.00    +0.120 C 
BRANCH  28  29
ATOM     29  N   UNL     1      42.754  72.294  42.306  0.00  0.00    -0.270 NA
ATOM     30  C   UNL     1      41.548  72.032  41.606  0.00  0.00    +0.072 C 
ATOM     31  C   UNL     1      41.387  70.504  41.571  0.00  0.00    +0.017 C 
ATOM     32  C   UNL     1      41.064  70.052  42.977  0.00  0.00    +0.003 C 
ATOM     33  C   UNL     1      41.633  70.987  44.011  0.00  0.00    +0.017 C 
ATOM     34  C   UNL     1      42.938  71.552  43.509  0.00  0.00    +0.072 C 
ENDBRANCH  28  29
ENDBRANCH  27  28
ENDBRANCH  26  27
ENDBRANCH  23  26
ENDBRANCH  19  20
ENDBRANCH   2  19
TORSDOF 8
