REMARK  Name = AS-1670542
REMARK  6 active torsions:
REMARK  status: ('A' for Active; 'I' for Inactive)
REMARK    1  A    between atoms: C_4  and  N_7
REMARK    2  A    between atoms: N_10  and  C_13
REMARK    3  A    between atoms: C_14  and  C_37
REMARK    4  A    between atoms: C_19  and  C_21
REMARK    5  A    between atoms: C_24  and  N_27
REMARK    6  A    between atoms: C_30  and  C_33
REMARK                            x       y       z     vdW  Elec       q    Type
REMARK                         _______ _______ _______ _____ _____    ______ ____
ROOT
ATOM      1  C   UNL     1      47.923  81.098  40.240  0.00  0.00    +0.099 A 
ATOM      2  C   UNL     1      46.791  81.592  40.810  0.00  0.00    +0.109 A 
ATOM      3  N   UNL     1      45.650  81.105  40.403  0.00  0.00    -0.221 NA
ATOM      4  C   UNL     1      45.617  80.178  39.480  0.00  0.00    +0.187 A 
ATOM      5  S   UNL     1      47.263  79.938  39.127  0.00  0.00    -0.035 S 
ATOM      6  N   UNL     1      44.451  79.523  38.904  0.00  0.00    -0.150 NA
ATOM      7  C   UNL     1      43.724  78.612  39.703  0.00  0.00    +0.272 C 
ATOM      8  O   UNL     1      44.176  78.371  40.861  0.00  0.00    -0.268 OA
ENDROOT
BRANCH   7   9
ATOM      9  C   UNL     1      42.503  77.951  39.265  0.00  0.00    +0.076 A 
ATOM     10  C   UNL     1      41.789  78.472  38.216  0.00  0.00    +0.020 A 
ATOM     11  C   UNL     1      40.639  77.838  37.812  0.00  0.00    +0.089 A 
ATOM     12  C   UNL     1      40.199  76.684  38.453  0.00  0.00    +0.142 A 
ATOM     13  N   UNL     1      40.925  76.186  39.493  0.00  0.00    -0.228 NA
ATOM     14  C   UNL     1      42.046  76.813  39.879  0.00  0.00    +0.105 A 
ATOM     15 CL   UNL     1      39.680  78.458  36.470  0.00  0.00    -0.079 Cl
BRANCH  12  16
ATOM     16  N   UNL     1      39.011  76.069  38.003  0.00  0.00    -0.293 N 
ATOM     17  C   UNL     1      38.235  75.222  38.859  0.00  0.00    +0.093 C 
ATOM     18  C   UNL     1      38.340  73.809  38.359  0.00  0.00    +0.033 C 
ATOM     19  C   UNL     1      38.785  73.800  36.935  0.00  0.00    +0.107 C 
ATOM     20  C   UNL     1      38.186  74.913  36.104  0.00  0.00    +0.033 C 
ATOM     21  C   UNL     1      38.546  76.279  36.662  0.00  0.00    +0.093 C 
BRANCH  19  22
ATOM     22  C   UNL     1      38.374  72.522  36.315  0.00  0.00    +0.364 C 
ATOM     23  O   UNL     1      39.153  71.811  35.642  0.00  0.00    -0.246 OA
ATOM     24  O   UNL     1      37.071  72.094  36.485  0.00  0.00    -0.246 OA
ENDBRANCH  19  22
ENDBRANCH  12  16
ENDBRANCH   7   9
BRANCH   1  28
ATOM     25  N   UNL     1      51.950  82.099  40.841  0.00  0.00    -0.271 NA
ATOM     26  C   UNL     1      51.258  81.612  41.958  0.00  0.00    +0.094 C 
ATOM     27  C   UNL     1      49.832  81.248  41.770  0.00  0.00    +0.109 C 
ATOM     28  N   UNL     1      49.321  81.393  40.435  0.00  0.00    -0.299 N 
ATOM     29  C   UNL     1      50.048  81.828  39.283  0.00  0.00    +0.109 C 
ATOM     30  C   UNL     1      51.517  81.725  39.555  0.00  0.00    +0.094 C 
BRANCH  25  34
ATOM     31  C   UNL     1      54.587  85.260  41.981  0.00  0.00    +0.000 C 
ATOM     32  C   UNL     1      53.100  85.333  42.251  0.00  0.00    +0.001 C 
ATOM     33  C   UNL     1      52.614  83.883  42.364  0.00  0.00    +0.016 C 
ATOM     34  C   UNL     1      52.678  83.298  40.995  0.00  0.00    +0.058 C 
ATOM     35  C   UNL     1      54.134  83.205  40.597  0.00  0.00    +0.016 C 
ATOM     36  C   UNL     1      55.040  83.862  41.621  0.00  0.00    +0.001 C 
ENDBRANCH  25  34
ENDBRANCH   1  28
BRANCH   2  37
ATOM     37  C   UNL     1      46.792  82.652  41.870  0.00  0.00    +0.050 A 
ATOM     38  C   UNL     1      47.752  83.562  42.175  0.00  0.00    +0.020 A 
ATOM     39  C   UNL     1      47.496  84.417  43.196  0.00  0.00    +0.065 A 
ATOM     40  C   UNL     1      46.294  84.289  43.829  0.00  0.00    +0.047 A 
ATOM     41  S   UNL     1      45.559  82.997  42.998  0.00  0.00    -0.084 S 
ATOM     42 CL   UNL     1      48.654  85.679  43.728  0.00  0.00    -0.082 Cl
ENDBRANCH   2  37
TORSDOF 6
