REMARK  Name = Asciminib
REMARK  5 active torsions:
REMARK  status: ('A' for Active; 'I' for Inactive)
REMARK    1  A    between atoms: C_8  and  C_27
REMARK    2  A    between atoms: C_10  and  C_13
REMARK    3  A    between atoms: N_15  and  C_16
REMARK    4  A    between atoms: C_19  and  O_22
REMARK    5  A    between atoms: O_22  and  C_23
REMARK                            x       y       z     vdW  Elec       q    Type
REMARK                         _______ _______ _______ _____ _____    ______ ____
ROOT
ATOM      1  C   UNL     1      39.269  75.777  38.438  0.00  0.00    +0.056 C 
ATOM      2  C   UNL     1      40.684  75.812  39.049  0.00  0.00    +0.095 C 
ATOM      3  N   UNL     1      41.407  76.753  38.241  0.00  0.00    -0.291 N 
ATOM      4  C   UNL     1      40.796  76.731  36.940  0.00  0.00    +0.125 C 
ATOM      5  C   UNL     1      39.318  76.853  37.354  0.00  0.00    +0.173 C 
ATOM      6  O   UNL     1      38.472  76.590  36.309  0.00  0.00    -0.221 OA
ATOM      7  C   UNL     1      42.476  77.577  38.636  0.00  0.00    +0.133 A 
ATOM      8  C   UNL     1      43.163  77.486  39.803  0.00  0.00    +0.051 A 
ATOM      9  C   UNL     1      44.161  78.447  40.085  0.00  0.00    +0.010 A 
ATOM     10  C   UNL     1      44.456  79.458  39.223  0.00  0.00    +0.075 A 
ATOM     11  C   UNL     1      43.735  79.517  38.039  0.00  0.00    +0.105 A 
ATOM     12  N   UNL     1      42.806  78.620  37.782  0.00  0.00    -0.229 NA
ENDROOT
BRANCH   8  13
ATOM     13  C   UNL     1      42.983  76.404  40.731  0.00  0.00    +0.107 A 
ATOM     14  C   UNL     1      44.037  75.814  41.441  0.00  0.00    +0.043 A 
ATOM     15  C   UNL     1      43.527  74.838  42.269  0.00  0.00    +0.124 A 
ATOM     16  N   UNL     1      42.204  74.837  42.067  0.00  0.00    -0.146 NA
ATOM     17  N   UNL     1      41.893  75.768  41.153  0.00  0.00    -0.148 NA
ENDBRANCH   8  13
BRANCH  10  18
ATOM     18  C   UNL     1      45.471  80.440  39.502  0.00  0.00    +0.270 C 
ATOM     19  O   UNL     1      45.582  81.517  38.823  0.00  0.00    -0.268 OA
ATOM     20  N   UNL     1      46.392  80.245  40.550  0.00  0.00    -0.175 NA
BRANCH  20  21
ATOM     21  C   UNL     1      47.359  81.255  40.825  0.00  0.00    +0.074 A 
ATOM     22  C   UNL     1      47.322  82.440  40.113  0.00  0.00    +0.020 A 
ATOM     23  C   UNL     1      48.256  83.407  40.383  0.00  0.00    +0.038 A 
ATOM     24  C   UNL     1      49.202  83.152  41.363  0.00  0.00    +0.145 A 
ATOM     25  C   UNL     1      49.244  81.980  42.072  0.00  0.00    +0.038 A 
ATOM     26  C   UNL     1      48.294  80.991  41.801  0.00  0.00    +0.020 A 
BRANCH  24  27
ATOM     27  O   UNL     1      50.143  84.141  41.628  0.00  0.00    -0.418 OA
BRANCH  27  28
ATOM     28  C   UNL     1      49.965  84.903  42.799  0.00  0.00    +0.489 C 
ATOM     29  F   UNL     1      48.855  85.720  42.603  0.00  0.00    -0.149 F 
ATOM     30  F   UNL     1      51.048  85.705  43.073  0.00  0.00    -0.149 F 
ATOM     31 CL   UNL     1      49.645  83.767  44.137  0.00  0.00    +0.000 Cl
ENDBRANCH  27  28
ENDBRANCH  24  27
ENDBRANCH  20  21
ENDBRANCH  10  18
TORSDOF 5
