REMARK  Name = Asenapine
REMARK  0 active torsions:
REMARK  status: ('A' for Active; 'I' for Inactive)
REMARK                            x       y       z     vdW  Elec       q    Type
REMARK                         _______ _______ _______ _____ _____    ______ ____
ROOT
ATOM      1  C   UNL     1      48.489  77.649  41.016  0.00  0.00    +0.090 C 
ATOM      2  N   UNL     1      47.129  77.627  41.373  0.00  0.00    -0.271 NA
ATOM      3  C   UNL     1      46.192  77.435  40.285  0.00  0.00    +0.077 C 
ATOM      4  C   UNL     1      44.993  78.184  40.761  0.00  0.00    +0.047 C 
ATOM      5  C   UNL     1      45.671  79.418  41.334  0.00  0.00    +0.047 C 
ATOM      6  C   UNL     1      46.647  78.707  42.197  0.00  0.00    +0.077 C 
ATOM      7  C   UNL     1      46.105  80.405  40.405  0.00  0.00    +0.015 A 
ATOM      8  C   UNL     1      45.367  80.939  39.341  0.00  0.00    +0.141 A 
ATOM      9  C   UNL     1      45.925  81.900  38.525  0.00  0.00    +0.038 A 
ATOM     10  C   UNL     1      47.209  82.358  38.730  0.00  0.00    +0.015 A 
ATOM     11  C   UNL     1      47.944  81.824  39.791  0.00  0.00    +0.058 A 
ATOM     12  C   UNL     1      47.376  80.865  40.599  0.00  0.00    +0.010 A 
ATOM     13 CL   UNL     1      49.584  82.346  40.125  0.00  0.00    -0.082 Cl
ATOM     14  O   UNL     1      44.075  80.628  38.957  0.00  0.00    -0.454 OA
ATOM     15  C   UNL     1      43.425  79.396  39.064  0.00  0.00    +0.141 A 
ATOM     16  C   UNL     1      42.288  79.285  38.296  0.00  0.00    +0.037 A 
ATOM     17  C   UNL     1      41.538  78.129  38.295  0.00  0.00    +0.003 A 
ATOM     18  C   UNL     1      41.970  77.090  39.092  0.00  0.00    -0.000 A 
ATOM     19  C   UNL     1      43.109  77.211  39.857  0.00  0.00    -0.001 A 
ATOM     20  C   UNL     1      43.886  78.354  39.883  0.00  0.00    +0.014 A 
ENDROOT
TORSDOF 0
