REMARK  Name = Asiaticoside
REMARK  10 active torsions:
REMARK  status: ('A' for Active; 'I' for Inactive)
REMARK    1  A    between atoms: C_5  and  C_33
REMARK    2  A    between atoms: C_21  and  C_23
REMARK    3  A    between atoms: C_33  and  O_35
REMARK    4  A    between atoms: O_35  and  C_36
REMARK    5  A    between atoms: C_40  and  C_42
REMARK    6  A    between atoms: C_42  and  O_43
REMARK    7  A    between atoms: O_43  and  C_44
REMARK    8  A    between atoms: C_47  and  O_52
REMARK    9  A    between atoms: C_48  and  C_50
REMARK   10  A    between atoms: O_52  and  C_53
REMARK                            x       y       z     vdW  Elec       q    Type
REMARK                         _______ _______ _______ _____ _____    ______ ____
ROOT
ATOM      1  C   UNL     1      42.626  75.802  38.689  0.00  0.00    +0.318 C 
ATOM      2  O   UNL     1      42.885  76.939  38.244  0.00  0.00    -0.250 OA
ENDROOT
BRANCH   1   7
ATOM      3  C   UNL     1      40.224  72.561  36.242  0.00  0.00    +0.000 C 
ATOM      4  C   UNL     1      41.636  72.980  36.394  0.00  0.00    +0.000 C 
ATOM      5  C   UNL     1      42.180  72.779  37.793  0.00  0.00    +0.001 C 
ATOM      6  C   UNL     1      41.432  73.696  38.677  0.00  0.00    +0.011 C 
ATOM      7  C   UNL     1      41.357  75.138  38.291  0.00  0.00    +0.093 C 
ATOM      8  C   UNL     1      40.312  75.739  39.212  0.00  0.00    +0.011 C 
ATOM      9  C   UNL     1      38.943  75.326  38.831  0.00  0.00    +0.004 C 
ATOM     10  C   UNL     1      38.627  75.915  37.459  0.00  0.00    +0.015 C 
ATOM     11  C   UNL     1      39.698  75.666  36.462  0.00  0.00    -0.049 C 
ATOM     12  C   UNL     1      39.382  75.702  35.180  0.00  0.00    -0.035 C 
ATOM     13  C   UNL     1      37.951  75.985  34.806  0.00  0.00    +0.025 C 
ATOM     14  C   UNL     1      37.166  75.045  35.700  0.00  0.00    +0.005 C 
ATOM     15  C   UNL     1      37.212  75.599  37.078  0.00  0.00    +0.003 C 
ATOM     16  C   UNL     1      36.679  74.401  37.906  0.00  0.00    +0.000 C 
ATOM     17  C   UNL     1      35.275  74.068  37.576  0.00  0.00    +0.000 C 
ATOM     18  C   UNL     1      34.799  74.376  36.181  0.00  0.00    +0.005 C 
ATOM     19  C   UNL     1      35.905  74.519  35.170  0.00  0.00    +0.003 C 
ATOM     20  C   UNL     1      36.109  73.121  34.570  0.00  0.00    +0.036 C 
ATOM     21  C   UNL     1      34.934  72.835  33.716  0.00  0.00    +0.182 C 
ATOM     22  C   UNL     1      33.628  72.960  34.403  0.00  0.00    +0.184 C 
ATOM     23  C   UNL     1      33.628  73.584  35.746  0.00  0.00    +0.061 C 
ATOM     24  C   UNL     1      33.420  72.445  36.752  0.00  0.00    +0.005 C 
ATOM     25  O   UNL     1      33.064  71.657  34.432  0.00  0.00    -0.220 OA
ATOM     26  O   UNL     1      35.148  71.525  33.204  0.00  0.00    -0.220 OA
ATOM     27  C   UNL     1      35.418  75.427  34.063  0.00  0.00    +0.000 C 
ATOM     28  C   UNL     1      36.265  76.729  37.378  0.00  0.00    +0.000 C 
ATOM     29  C   UNL     1      41.108  75.401  36.824  0.00  0.00    +0.028 C 
ATOM     30  C   UNL     1      41.913  74.437  36.076  0.00  0.00    +0.004 C 
ATOM     31  C   UNL     1      42.179  74.536  34.637  0.00  0.00    +0.000 C 
ATOM     32  C   UNL     1      38.777  77.433  37.772  0.00  0.00    +0.004 C 
BRANCH  23  33
ATOM     33  C   UNL     1      32.301  74.369  35.838  0.00  0.00    +0.184 C 
ATOM     34  O   UNL     1      32.270  75.156  36.977  0.00  0.00    -0.220 OA
ENDBRANCH  23  33
ENDBRANCH   1   7
BRANCH   1  35
ATOM     35  O   UNL     1      43.557  75.234  39.535  0.00  0.00    -0.422 OA
BRANCH  35  36
ATOM     36  C   UNL     1      44.198  76.006  40.570  0.00  0.00    +0.324 C 
ATOM     37  C   UNL     1      43.522  75.552  41.847  0.00  0.00    +0.254 C 
ATOM     38  C   UNL     1      43.927  76.501  42.947  0.00  0.00    +0.221 C 
ATOM     39  C   UNL     1      45.156  77.247  42.474  0.00  0.00    +0.214 C 
ATOM     40  C   UNL     1      44.788  78.070  41.287  0.00  0.00    +0.181 C 
ATOM     41  O   UNL     1      44.027  77.350  40.378  0.00  0.00    -0.316 OA
ATOM     42  O   UNL     1      45.576  78.014  43.562  0.00  0.00    -0.218 OA
ATOM     43  O   UNL     1      44.262  75.826  44.120  0.00  0.00    -0.217 OA
ATOM     44  O   UNL     1      42.148  75.608  41.611  0.00  0.00    -0.213 OA
BRANCH  40  45
ATOM     45  C   UNL     1      44.090  79.365  41.690  0.00  0.00    +0.177 C 
BRANCH  45  46
ATOM     46  O   UNL     1      44.984  80.147  42.400  0.00  0.00    -0.326 OA
BRANCH  46  47
ATOM     47  C   UNL     1      45.791  80.929  41.586  0.00  0.00    +0.270 C 
ATOM     48  C   UNL     1      46.545  80.143  40.577  0.00  0.00    +0.240 C 
ATOM     49  C   UNL     1      47.881  80.758  40.265  0.00  0.00    +0.217 C 
ATOM     50  C   UNL     1      48.700  81.128  41.453  0.00  0.00    +0.180 C 
ATOM     51  C   UNL     1      47.827  81.223  42.676  0.00  0.00    +0.180 C 
ATOM     52  O   UNL     1      46.567  81.694  42.447  0.00  0.00    -0.326 OA
ATOM     53  O   UNL     1      47.671  81.941  39.518  0.00  0.00    -0.218 OA
ATOM     54  O   UNL     1      45.822  80.180  39.359  0.00  0.00    -0.215 OA
BRANCH  51  55
ATOM     55  C   UNL     1      47.866  79.946  43.501  0.00  0.00    +0.214 C 
ATOM     56  O   UNL     1      48.156  80.246  44.830  0.00  0.00    -0.218 OA
ENDBRANCH  51  55
BRANCH  50  57
ATOM     57  O   UNL     1      49.323  82.388  41.288  0.00  0.00    -0.326 OA
BRANCH  57  58
ATOM     58  C   UNL     1      50.678  82.237  41.006  0.00  0.00    +0.269 C 
ATOM     59  C   UNL     1      51.446  83.531  41.108  0.00  0.00    +0.241 C 
ATOM     60  C   UNL     1      51.754  83.910  42.533  0.00  0.00    +0.220 C 
ATOM     61  C   UNL     1      52.196  82.755  43.389  0.00  0.00    +0.212 C 
ATOM     62  C   UNL     1      51.298  81.590  43.132  0.00  0.00    +0.151 C 
ATOM     63  O   UNL     1      51.254  81.232  41.786  0.00  0.00    -0.328 OA
ATOM     64  C   UNL     1      51.569  80.385  43.971  0.00  0.00    +0.035 C 
ATOM     65  O   UNL     1      51.999  83.142  44.732  0.00  0.00    -0.218 OA
ATOM     66  O   UNL     1      50.675  84.521  43.140  0.00  0.00    -0.217 OA
ATOM     67  O   UNL     1      52.596  83.397  40.348  0.00  0.00    -0.215 OA
ENDBRANCH  57  58
ENDBRANCH  50  57
ENDBRANCH  46  47
ENDBRANCH  45  46
ENDBRANCH  40  45
ENDBRANCH  35  36
ENDBRANCH   1  35
TORSDOF 10
