REMARK  Name = Aspoxicillin
REMARK  8 active torsions:
REMARK  status: ('A' for Active; 'I' for Inactive)
REMARK    1  A    between atoms: CA_3  and  C_31
REMARK    2  A    between atoms: CA_7  and  N_10
REMARK    3  A    between atoms: C_11  and  CA_13
REMARK    4  A    between atoms: CA_13  and  C_14
REMARK    5  A    between atoms: CA_13  and  N_21
REMARK    6  A    between atoms: C_22  and  CA_24
REMARK    7  A    between atoms: CA_24  and  C_25
REMARK    8  A    between atoms: C_25  and  C_26
REMARK                            x       y       z     vdW  Elec       q    Type
REMARK                         _______ _______ _______ _____ _____    ______ ____
ROOT
ATOM      1  CA  UNL     1      45.618  78.613  40.839  0.00  0.00    +0.195 C 
ENDROOT
BRANCH   1   2
ATOM      2  C   UNL     1      45.664  79.825  39.992  0.00  0.00    +0.006 A 
ATOM      3  C   UNL     1      46.365  80.960  40.367  0.00  0.00    +0.001 A 
ATOM      4  C   UNL     1      46.393  82.082  39.557  0.00  0.00    +0.042 A 
ATOM      5  C   UNL     1      45.719  82.087  38.356  0.00  0.00    +0.196 A 
ATOM      6  C   UNL     1      45.011  80.972  37.953  0.00  0.00    +0.042 A 
ATOM      7  C   UNL     1      45.006  79.879  38.781  0.00  0.00    +0.001 A 
ATOM      8  O   UNL     1      45.704  83.179  37.493  0.00  0.00    -0.287 OA
ENDBRANCH   1   2
BRANCH   1  10
ATOM      9  N   UNL     1      47.415  79.332  42.440  0.00  0.00    -0.193 NA
ATOM     10  C   UNL     1      46.083  78.886  42.225  0.00  0.00    +0.266 C 
ATOM     11  O   UNL     1      45.307  78.726  43.202  0.00  0.00    -0.271 OA
BRANCH   9  18
ATOM     12  C   UNL     1      49.968  84.570  42.002  0.00  0.00    +0.013 C 
ATOM     13  C   UNL     1      49.781  83.765  43.238  0.00  0.00    +0.068 C 
ATOM     14  CA  UNL     1      50.571  82.455  43.217  0.00  0.00    +0.189 C 
ATOM     15  N   UNL     1      49.763  81.495  42.516  0.00  0.00    -0.259 N 
ATOM     16  C   UNL     1      48.510  81.333  43.227  0.00  0.00    +0.153 C 
ATOM     17  S   UNL     1      48.069  83.110  43.381  0.00  0.00    -0.118 S 
ATOM     18  CA  UNL     1      47.885  80.639  42.059  0.00  0.00    +0.200 C 
ATOM     19  C   UNL     1      49.308  80.551  41.571  0.00  0.00    +0.249 C 
ATOM     20  O   UNL     1      49.763  79.829  40.631  0.00  0.00    -0.273 OA
ATOM     21  C   UNL     1      50.137  84.492  44.500  0.00  0.00    +0.013 C 
BRANCH  14  22
ATOM     22  C   UNL     1      51.875  82.644  42.587  0.00  0.00    +0.383 C 
ATOM     23  O   UNL     1      52.010  82.601  41.347  0.00  0.00    -0.244 OA
ATOM     24  OXT UNL     1      52.989  82.877  43.373  0.00  0.00    -0.244 OA
ENDBRANCH  14  22
ENDBRANCH   9  18
ENDBRANCH   1  10
BRANCH   1  25
ATOM     25  N   UNL     1      44.307  78.007  40.869  0.00  0.00    -0.192 NA
ATOM     26  C   UNL     1      43.945  76.826  40.214  0.00  0.00    +0.260 C 
ATOM     27  O   UNL     1      44.851  76.061  39.802  0.00  0.00    -0.272 OA
BRANCH  26  28
ATOM     28  CA  UNL     1      42.528  76.474  40.006  0.00  0.00    +0.178 C 
ATOM     29  N   UNL     1      42.298  75.138  40.468  0.00  0.00    -0.123 NA
BRANCH  28  30
ATOM     30  C   UNL     1      42.093  76.607  38.563  0.00  0.00    +0.115 C 
BRANCH  30  31
ATOM     31  C   UNL     1      40.612  76.390  38.539  0.00  0.00    +0.243 C 
ATOM     32  O   UNL     1      39.910  76.372  39.578  0.00  0.00    -0.273 OA
ATOM     33  N   UNL     1      39.967  76.196  37.302  0.00  0.00    -0.203 NA
ATOM     34  C   UNL     1      38.552  75.883  37.167  0.00  0.00    +0.138 C 
ENDBRANCH  30  31
ENDBRANCH  28  30
ENDBRANCH  26  28
ENDBRANCH   1  25
TORSDOF 8
