REMARK  Name = Astromycin_sulfate
REMARK  6 active torsions:
REMARK  status: ('A' for Active; 'I' for Inactive)
REMARK    1  A    between atoms: C_2  and  C_3
REMARK    2  A    between atoms: C_7  and  O_9
REMARK    3  A    between atoms: O_9  and  C_10
REMARK    4  A    between atoms: C_13  and  O_23
REMARK    5  A    between atoms: C_14  and  N_17
REMARK    6  A    between atoms: C_19  and  C_21
REMARK                            x       y       z     vdW  Elec       q    Type
REMARK                         _______ _______ _______ _____ _____    ______ ____
ROOT
ATOM      1  C   UNL     1      46.170  79.965  40.198  0.00  0.00    +0.170 C 
ATOM      2  C   UNL     1      46.294  81.241  39.446  0.00  0.00    +0.154 C 
ATOM      3  C   UNL     1      46.412  82.462  40.284  0.00  0.00    +0.200 C 
ATOM      4  C   UNL     1      47.441  82.338  41.385  0.00  0.00    +0.168 C 
ATOM      5  C   UNL     1      47.358  81.072  42.162  0.00  0.00    +0.138 C 
ATOM      6  C   UNL     1      46.416  80.043  41.656  0.00  0.00    +0.201 C 
ATOM      7  O   UNL     1      46.832  78.792  42.130  0.00  0.00    -0.219 OA
ATOM      8  O   UNL     1      46.812  83.526  39.467  0.00  0.00    -0.219 OA
ATOM      9  N   UNL     1      45.144  81.457  38.555  0.00  0.00    -0.127 NA
ENDROOT
BRANCH   5  10
ATOM     10  N   UNL     1      48.704  80.532  42.465  0.00  0.00    -0.273 N 
ATOM     11  C   UNL     1      49.157  80.436  43.855  0.00  0.00    +0.115 C 
ATOM     12  C   UNL     1      49.571  80.104  41.458  0.00  0.00    +0.245 C 
ATOM     13  O   UNL     1      49.555  78.901  41.019  0.00  0.00    -0.273 OA
BRANCH  12  14
ATOM     14  C   UNL     1      50.564  80.981  40.822  0.00  0.00    +0.194 C 
ATOM     15  N   UNL     1      51.845  81.047  41.435  0.00  0.00    -0.121 NA
ENDBRANCH  12  14
ENDBRANCH   5  10
BRANCH   4  16
ATOM     16  O   UNL     1      48.719  82.619  40.909  0.00  0.00    -0.349 OA
ATOM     17  C   UNL     1      48.944  83.970  40.697  0.00  0.00    +0.174 C 
ENDBRANCH   4  16
BRANCH   1  18
ATOM     18  O   UNL     1      44.858  79.442  40.040  0.00  0.00    -0.328 OA
BRANCH  18  23
ATOM     19  C   UNL     1      43.023  76.947  40.108  0.00  0.00    +0.135 C 
ATOM     20  C   UNL     1      42.286  78.222  39.773  0.00  0.00    +0.033 C 
ATOM     21  C   UNL     1      42.610  78.587  38.344  0.00  0.00    +0.027 C 
ATOM     22  C   UNL     1      44.051  78.245  38.100  0.00  0.00    +0.148 C 
ATOM     23  C   UNL     1      44.822  78.231  39.404  0.00  0.00    +0.253 C 
ATOM     24  O   UNL     1      44.362  77.214  40.250  0.00  0.00    -0.330 OA
ATOM     25  N   UNL     1      44.159  76.923  37.500  0.00  0.00    -0.128 NA
BRANCH  19  27
ATOM     26  C   UNL     1      41.389  75.450  41.111  0.00  0.00    +0.023 C 
ATOM     27  C   UNL     1      42.494  76.435  41.439  0.00  0.00    +0.119 C 
ATOM     28  N   UNL     1      43.553  75.655  42.087  0.00  0.00    -0.130 NA
ENDBRANCH  19  27
ENDBRANCH  18  23
ENDBRANCH   1  18
TORSDOF 6
REMARK  Name = Astromycin_sulfate
REMARK  6 active torsions:
REMARK  status: ('A' for Active; 'I' for Inactive)
REMARK    1  A    between atoms: C_2  and  C_3
REMARK    2  A    between atoms: C_7  and  O_9
REMARK    3  A    between atoms: O_9  and  C_10
REMARK    4  A    between atoms: C_13  and  O_23
REMARK    5  A    between atoms: C_14  and  N_17
REMARK    6  A    between atoms: C_19  and  C_21
REMARK                            x       y       z     vdW  Elec       q    Type
REMARK                         _______ _______ _______ _____ _____    ______ ____
ROOT
ATOM      1  O   UNL     1      44.957  78.310  40.452  0.00  0.00    -0.020 OA
ATOM      2  S   UNL     1      45.753  79.762  40.674  0.00  0.00    +0.267 S 
ATOM      3  O   UNL     1      45.712  80.504  39.370  0.00  0.00    -0.113 OA
ATOM      4  O   UNL     1      45.012  80.536  41.725  0.00  0.00    -0.113 OA
ATOM      5  O   UNL     1      47.352  79.526  41.162  0.00  0.00    -0.020 OA
ENDROOT
TORSDOF 0
REMARK  Name = Astromycin_sulfate
REMARK  6 active torsions:
REMARK  status: ('A' for Active; 'I' for Inactive)
REMARK    1  A    between atoms: C_2  and  C_3
REMARK    2  A    between atoms: C_7  and  O_9
REMARK    3  A    between atoms: O_9  and  C_10
REMARK    4  A    between atoms: C_13  and  O_23
REMARK    5  A    between atoms: C_14  and  N_17
REMARK    6  A    between atoms: C_19  and  C_21
REMARK                            x       y       z     vdW  Elec       q    Type
REMARK                         _______ _______ _______ _____ _____    ______ ____
ROOT
ATOM      1  O   UNL     1      45.069  78.225  40.592  0.00  0.00    -0.020 OA
ATOM      2  S   UNL     1      45.947  79.661  40.710  0.00  0.00    +0.267 S 
ATOM      3  O   UNL     1      46.139  80.280  39.362  0.00  0.00    -0.113 OA
ATOM      4  O   UNL     1      45.260  80.571  41.677  0.00  0.00    -0.113 OA
ATOM      5  O   UNL     1      47.460  79.242  41.335  0.00  0.00    -0.020 OA
ENDROOT
TORSDOF 0
