REMARK  Name = Atazanavir
REMARK  18 active torsions:
REMARK  status: ('A' for Active; 'I' for Inactive)
REMARK    1  A    between atoms: C_2  and  C_5
REMARK    2  A    between atoms: C_5  and  C_6
REMARK    3  A    between atoms: C_5  and  N_47
REMARK    4  A    between atoms: N_8  and  C_9
REMARK    5  A    between atoms: C_9  and  C_10
REMARK    6  A    between atoms: C_9  and  C_17
REMARK    7  A    between atoms: C_10  and  C_11
REMARK    8  A    between atoms: C_17  and  C_18
REMARK    9  A    between atoms: C_18  and  N_19
REMARK   10  A    between atoms: N_19  and  C_20
REMARK   11  A    between atoms: N_19  and  N_33
REMARK   12  A    between atoms: C_20  and  C_21
REMARK   13  A    between atoms: C_24  and  C_27
REMARK   14  A    between atoms: C_34  and  C_36
REMARK   15  A    between atoms: C_36  and  C_37
REMARK   16  A    between atoms: C_36  and  N_41
REMARK   17  A    between atoms: C_42  and  O_44
REMARK   18  A    between atoms: C_48  and  O_50
REMARK                            x       y       z     vdW  Elec       q    Type
REMARK                         _______ _______ _______ _____ _____    ______ ____
ROOT
ATOM      1  N   UNL     1      45.638  79.591  39.561  0.00  0.00    -0.177 NA
ENDROOT
BRANCH   1   2
ATOM      2  N   UNL     1      46.040  78.593  40.383  0.00  0.00    -0.126 NA
ATOM      3  C   UNL     1      45.214  77.826  41.239  0.00  0.00    +0.276 C 
ATOM      4  O   UNL     1      43.957  78.049  41.078  0.00  0.00    -0.270 OA
BRANCH   3   5
ATOM      5  C   UNL     1      45.663  76.843  42.242  0.00  0.00    +0.177 C 
BRANCH   5   6
ATOM      6  C   UNL     1      45.172  77.129  43.625  0.00  0.00    +0.027 C 
ATOM      7  C   UNL     1      45.631  78.474  44.099  0.00  0.00    +0.002 C 
ATOM      8  C   UNL     1      43.661  77.103  43.721  0.00  0.00    +0.002 C 
ATOM      9  C   UNL     1      45.721  76.102  44.623  0.00  0.00    +0.002 C 
ENDBRANCH   5   6
BRANCH   5  10
ATOM     10  N   UNL     1      45.154  75.534  41.795  0.00  0.00    -0.161 NA
ATOM     11  C   UNL     1      45.901  74.669  40.960  0.00  0.00    +0.422 C 
ATOM     12  O   UNL     1      46.974  75.079  40.462  0.00  0.00    -0.225 OA
BRANCH  11  13
ATOM     13  O   UNL     1      45.503  73.374  40.660  0.00  0.00    -0.429 OA
ATOM     14  C   UNL     1      45.882  72.719  39.458  0.00  0.00    +0.257 C 
ENDBRANCH  11  13
ENDBRANCH   5  10
ENDBRANCH   3   5
ENDBRANCH   1   2
BRANCH   1  15
ATOM     15  C   UNL     1      46.574  80.419  38.927  0.00  0.00    +0.120 C 
BRANCH  15  16
ATOM     16  C   UNL     1      47.479  81.142  39.880  0.00  0.00    -0.004 A 
ATOM     17  C   UNL     1      47.287  81.000  41.233  0.00  0.00    -0.003 A 
ATOM     18  C   UNL     1      48.104  81.649  42.164  0.00  0.00    +0.001 A 
ATOM     19  C   UNL     1      49.132  82.455  41.759  0.00  0.00    +0.018 A 
ATOM     20  C   UNL     1      49.321  82.596  40.383  0.00  0.00    +0.001 A 
ATOM     21  C   UNL     1      48.512  81.953  39.462  0.00  0.00    -0.003 A 
BRANCH  19  22
ATOM     22  C   UNL     1      50.031  83.164  42.662  0.00  0.00    +0.081 A 
ATOM     23  C   UNL     1      51.295  83.547  42.290  0.00  0.00    +0.019 A 
ATOM     24  C   UNL     1      52.138  84.231  43.181  0.00  0.00    +0.003 A 
ATOM     25  C   UNL     1      51.703  84.530  44.453  0.00  0.00    +0.021 A 
ATOM     26  C   UNL     1      50.430  84.131  44.794  0.00  0.00    +0.099 A 
ATOM     27  N   UNL     1      49.639  83.477  43.925  0.00  0.00    -0.244 NA
ENDBRANCH  19  22
ENDBRANCH  15  16
ENDBRANCH   1  15
BRANCH   1  28
ATOM     28  C   UNL     1      44.267  79.975  39.559  0.00  0.00    +0.129 C 
BRANCH  28  29
ATOM     29  C   UNL     1      43.496  79.419  38.391  0.00  0.00    +0.190 C 
ATOM     30  O   UNL     1      44.328  79.097  37.322  0.00  0.00    -0.220 OA
BRANCH  29  31
ATOM     31  C   UNL     1      42.602  78.290  38.695  0.00  0.00    +0.131 C 
BRANCH  31  34
ATOM     32  C   UNL     1      40.255  77.950  37.772  0.00  0.00    +0.261 C 
ATOM     33  O   UNL     1      39.750  78.174  38.901  0.00  0.00    -0.271 OA
ATOM     34  N   UNL     1      41.684  77.875  37.685  0.00  0.00    -0.203 NA
BRANCH  32  35
ATOM     35  C   UNL     1      39.339  77.784  36.623  0.00  0.00    +0.176 C 
BRANCH  35  37
ATOM     36  C   UNL     1      37.767  76.195  35.500  0.00  0.00    +0.002 C 
ATOM     37  C   UNL     1      38.703  76.410  36.693  0.00  0.00    +0.027 C 
ATOM     38  C   UNL     1      39.697  75.278  36.623  0.00  0.00    +0.002 C 
ATOM     39  C   UNL     1      37.865  76.246  37.938  0.00  0.00    +0.002 C 
ENDBRANCH  35  37
BRANCH  35  40
ATOM     40  N   UNL     1      38.240  78.746  36.816  0.00  0.00    -0.161 NA
ATOM     41  C   UNL     1      37.863  79.671  35.805  0.00  0.00    +0.422 C 
ATOM     42  O   UNL     1      38.562  79.758  34.764  0.00  0.00    -0.225 OA
BRANCH  41  43
ATOM     43  O   UNL     1      36.754  80.497  35.896  0.00  0.00    -0.429 OA
ATOM     44  C   UNL     1      36.418  81.442  34.895  0.00  0.00    +0.257 C 
ENDBRANCH  41  43
ENDBRANCH  35  40
ENDBRANCH  32  35
ENDBRANCH  31  34
BRANCH  31  45
ATOM     45  C   UNL     1      43.237  77.163  39.507  0.00  0.00    +0.051 C 
BRANCH  45  46
ATOM     46  C   UNL     1      42.314  76.011  39.696  0.00  0.00    -0.020 A 
ATOM     47  C   UNL     1      41.608  75.752  40.818  0.00  0.00    -0.004 A 
ATOM     48  C   UNL     1      40.764  74.666  40.979  0.00  0.00    -0.000 A 
ATOM     49  C   UNL     1      40.612  73.780  39.952  0.00  0.00    -0.000 A 
ATOM     50  C   UNL     1      41.314  74.009  38.789  0.00  0.00    -0.000 A 
ATOM     51  C   UNL     1      42.148  75.090  38.645  0.00  0.00    -0.004 A 
ENDBRANCH  45  46
ENDBRANCH  31  45
ENDBRANCH  29  31
ENDBRANCH  28  29
ENDBRANCH   1  28
TORSDOF 18
