REMARK  Name = Atenolol
REMARK  8 active torsions:
REMARK  status: ('A' for Active; 'I' for Inactive)
REMARK    1  A    between atoms: C_2  and  N_4
REMARK    2  A    between atoms: N_4  and  C_5
REMARK    3  A    between atoms: C_5  and  C_6
REMARK    4  A    between atoms: C_6  and  C_7
REMARK    5  A    between atoms: C_7  and  O_8
REMARK    6  A    between atoms: O_8  and  C_9
REMARK    7  A    between atoms: C_12  and  C_15
REMARK    8  A    between atoms: C_15  and  C_16
REMARK                            x       y       z     vdW  Elec       q    Type
REMARK                         _______ _______ _______ _____ _____    ______ ____
ROOT
ATOM      1  C   UNL     1      47.660  82.061  40.873  0.00  0.00    +0.139 A 
ATOM      2  C   UNL     1      48.829  82.728  40.623  0.00  0.00    +0.037 A 
ATOM      3  C   UNL     1      49.798  82.946  41.614  0.00  0.00    -0.001 A 
ATOM      4  C   UNL     1      49.586  82.478  42.889  0.00  0.00    -0.013 A 
ATOM      5  C   UNL     1      48.403  81.805  43.129  0.00  0.00    -0.001 A 
ATOM      6  C   UNL     1      47.457  81.590  42.173  0.00  0.00    +0.037 A 
ENDROOT
BRANCH   1   7
ATOM      7  O   UNL     1      46.714  81.854  39.912  0.00  0.00    -0.473 OA
BRANCH   7   8
ATOM      8  C   UNL     1      45.814  80.848  39.824  0.00  0.00    +0.240 C 
BRANCH   8   9
ATOM      9  C   UNL     1      44.947  80.745  38.613  0.00  0.00    +0.213 C 
ATOM     10  O   UNL     1      44.365  81.976  38.275  0.00  0.00    -0.218 OA
BRANCH   9  11
ATOM     11  C   UNL     1      43.879  79.713  38.926  0.00  0.00    +0.125 C 
BRANCH  11  12
ATOM     12  N   UNL     1      42.994  79.480  37.827  0.00  0.00    -0.217 NA
BRANCH  12  14
ATOM     13  C   UNL     1      42.003  77.253  37.489  0.00  0.00    +0.019 C 
ATOM     14  C   UNL     1      41.987  78.530  38.264  0.00  0.00    +0.073 C 
ATOM     15  C   UNL     1      40.627  79.185  38.175  0.00  0.00    +0.019 C 
ENDBRANCH  12  14
ENDBRANCH  11  12
ENDBRANCH   9  11
ENDBRANCH   8   9
ENDBRANCH   7   8
ENDBRANCH   1   7
BRANCH   4  16
ATOM     16  C   UNL     1      50.574  82.678  43.976  0.00  0.00    +0.115 C 
BRANCH  16  17
ATOM     17  C   UNL     1      50.443  84.038  44.509  0.00  0.00    +0.265 C 
ATOM     18  O   UNL     1      50.362  85.004  43.714  0.00  0.00    -0.271 OA
ATOM     19  N   UNL     1      50.411  84.234  45.929  0.00  0.00    -0.087 NA
ENDBRANCH  16  17
ENDBRANCH   4  16
TORSDOF 8
