REMARK  Name = Atogepant
REMARK  5 active torsions:
REMARK  status: ('A' for Active; 'I' for Inactive)
REMARK    1  A    between atoms: C_3  and  C_35
REMARK    2  A    between atoms: C_5  and  N_14
REMARK    3  A    between atoms: N_8  and  C_9
REMARK    4  A    between atoms: C_9  and  C_10
REMARK    5  A    between atoms: C_15  and  C_17
REMARK                            x       y       z     vdW  Elec       q    Type
REMARK                         _______ _______ _______ _____ _____    ______ ____
ROOT
ATOM      1  C   UNL     1      49.867  82.502  40.130  0.00  0.00    +0.022 C 
ATOM      2  C   UNL     1      49.673  81.396  41.141  0.00  0.00    +0.080 C 
ATOM      3  C   UNL     1      48.811  81.725  42.302  0.00  0.00    +0.047 C 
ATOM      4  C   UNL     1      47.385  81.463  42.072  0.00  0.00    +0.037 C 
ATOM      5  C   UNL     1      46.952  81.142  40.662  0.00  0.00    +0.172 C 
ATOM      6  C   UNL     1      47.860  80.048  40.214  0.00  0.00    +0.246 C 
ATOM      7  O   UNL     1      47.398  79.027  39.668  0.00  0.00    -0.273 OA
ATOM      8  N   UNL     1      49.230  80.230  40.437  0.00  0.00    -0.272 N 
ENDROOT
BRANCH   3   9
ATOM      9  C   UNL     1      49.114  83.059  42.900  0.00  0.00    +0.036 A 
ATOM     10  C   UNL     1      50.394  83.337  43.332  0.00  0.00    +0.138 A 
ATOM     11  C   UNL     1      50.648  84.570  43.876  0.00  0.00    +0.032 A 
ATOM     12  C   UNL     1      49.651  85.520  43.993  0.00  0.00    +0.034 A 
ATOM     13  C   UNL     1      48.376  85.235  43.560  0.00  0.00    +0.167 A 
ATOM     14  C   UNL     1      48.117  83.978  43.006  0.00  0.00    +0.166 A 
ATOM     15  F   UNL     1      46.816  83.758  42.590  0.00  0.00    -0.202 F 
ATOM     16  F   UNL     1      47.360  86.147  43.658  0.00  0.00    -0.202 F 
ATOM     17  F   UNL     1      51.362  82.384  43.206  0.00  0.00    -0.204 F 
ENDBRANCH   3   9
BRANCH   5  18
ATOM     18  N   UNL     1      45.581  80.638  40.796  0.00  0.00    -0.194 NA
ATOM     19  C   UNL     1      44.931  80.183  39.624  0.00  0.00    +0.267 C 
ATOM     20  O   UNL     1      45.033  80.850  38.547  0.00  0.00    -0.268 OA
BRANCH  19  21
ATOM     21  C   UNL     1      44.130  78.965  39.566  0.00  0.00    +0.074 A 
ATOM     22  C   UNL     1      42.766  79.046  39.431  0.00  0.00    +0.003 A 
ATOM     23  C   UNL     1      41.953  77.907  39.370  0.00  0.00    -0.008 A 
ATOM     24  C   UNL     1      42.534  76.665  39.449  0.00  0.00    +0.056 A 
ATOM     25  C   UNL     1      41.504  75.576  39.364  0.00  0.00    +0.059 C 
ATOM     26  C   UNL     1      40.323  76.334  38.786  0.00  0.00    +0.102 C 
ATOM     27  C   UNL     1      40.483  77.749  39.231  0.00  0.00    +0.041 C 
ATOM     28  C   UNL     1      39.057  75.723  39.179  0.00  0.00    +0.020 A 
ATOM     29  C   UNL     1      38.395  75.380  38.033  0.00  0.00    +0.151 A 
ATOM     30  N   UNL     1      39.140  75.723  36.877  0.00  0.00    -0.160 NA
ATOM     31  C   UNL     1      40.350  76.320  37.305  0.00  0.00    +0.251 C 
ATOM     32  O   UNL     1      41.274  76.757  36.588  0.00  0.00    -0.273 OA
ATOM     33  N   UNL     1      37.177  74.789  38.146  0.00  0.00    -0.228 NA
ATOM     34  C   UNL     1      36.594  74.525  39.322  0.00  0.00    +0.100 A 
ATOM     35  C   UNL     1      37.233  74.856  40.493  0.00  0.00    +0.020 A 
ATOM     36  C   UNL     1      38.471  75.458  40.397  0.00  0.00    +0.001 A 
ATOM     37  N   UNL     1      43.877  76.612  39.582  0.00  0.00    -0.248 NA
ATOM     38  C   UNL     1      44.666  77.700  39.641  0.00  0.00    +0.103 A 
ENDBRANCH  19  21
ENDBRANCH   5  18
BRANCH   8  39
ATOM     39  C   UNL     1      50.173  79.254  39.961  0.00  0.00    +0.197 C 
BRANCH  39  40
ATOM     40  C   UNL     1      50.382  78.126  40.947  0.00  0.00    +0.416 C 
ATOM     41  F   UNL     1      49.280  77.330  41.015  0.00  0.00    -0.168 F 
ATOM     42  F   UNL     1      50.590  78.701  42.187  0.00  0.00    -0.168 F 
ATOM     43  F   UNL     1      51.485  77.401  40.552  0.00  0.00    -0.168 F 
ENDBRANCH  39  40
ENDBRANCH   8  39
TORSDOF 5
