REMARK  Name = Atorvastatin
REMARK  12 active torsions:
REMARK  status: ('A' for Active; 'I' for Inactive)
REMARK    1  A    between atoms: C_2  and  C_4
REMARK    2  A    between atoms: C_5  and  C_33
REMARK    3  A    between atoms: C_6  and  C_27
REMARK    4  A    between atoms: C_7  and  C_20
REMARK    5  A    between atoms: N_8  and  C_9
REMARK    6  A    between atoms: C_9  and  C_10
REMARK    7  A    between atoms: C_10  and  C_11
REMARK    8  A    between atoms: C_11  and  C_12
REMARK    9  A    between atoms: C_12  and  C_13
REMARK   10  A    between atoms: C_13  and  C_14
REMARK   11  A    between atoms: C_14  and  C_15
REMARK   12  A    between atoms: N_35  and  C_36
REMARK                            x       y       z     vdW  Elec       q    Type
REMARK                         _______ _______ _______ _____ _____    ______ ____
ROOT
ATOM      1  C   UNL     1      48.699  79.285  41.723  0.00  0.00    +0.041 A 
ATOM      2  C   UNL     1      47.804  80.249  41.402  0.00  0.00    +0.068 A 
ATOM      3  C   UNL     1      48.287  81.497  41.913  0.00  0.00    +0.021 A 
ATOM      4  C   UNL     1      49.474  81.183  42.522  0.00  0.00    +0.060 A 
ATOM      5  N   UNL     1      49.736  79.870  42.420  0.00  0.00    -0.330 N 
ENDROOT
BRANCH   4   6
ATOM      6  C   UNL     1      50.340  82.155  43.180  0.00  0.00    +0.016 A 
ATOM      7  C   UNL     1      50.063  82.737  44.402  0.00  0.00    +0.004 A 
ATOM      8  C   UNL     1      50.908  83.631  44.989  0.00  0.00    +0.030 A 
ATOM      9  C   UNL     1      52.072  83.983  44.370  0.00  0.00    +0.140 A 
ATOM     10  C   UNL     1      52.393  83.433  43.154  0.00  0.00    +0.030 A 
ATOM     11  C   UNL     1      51.543  82.537  42.572  0.00  0.00    +0.004 A 
ATOM     12  F   UNL     1      52.956  84.873  44.906  0.00  0.00    -0.204 F 
ENDBRANCH   4   6
BRANCH   3  13
ATOM     13  C   UNL     1      47.597  82.744  41.761  0.00  0.00    +0.002 A 
ATOM     14  C   UNL     1      47.800  83.565  40.678  0.00  0.00    +0.000 A 
ATOM     15  C   UNL     1      47.120  84.775  40.548  0.00  0.00    +0.000 A 
ATOM     16  C   UNL     1      46.237  85.144  41.523  0.00  0.00    +0.000 A 
ATOM     17  C   UNL     1      45.999  84.353  42.632  0.00  0.00    +0.000 A 
ATOM     18  C   UNL     1      46.682  83.162  42.737  0.00  0.00    +0.000 A 
ENDBRANCH   3  13
BRANCH   1  20
ATOM     19  C   UNL     1      48.470  76.950  42.619  0.00  0.00    +0.006 C 
ATOM     20  C   UNL     1      48.629  77.833  41.407  0.00  0.00    +0.038 C 
ATOM     21  C   UNL     1      49.647  77.368  40.411  0.00  0.00    +0.006 C 
ENDBRANCH   1  20
BRANCH   2  22
ATOM     22  C   UNL     1      46.559  80.191  40.624  0.00  0.00    +0.270 C 
ATOM     23  O   UNL     1      46.515  80.884  39.537  0.00  0.00    -0.268 OA
ATOM     24  N   UNL     1      45.404  79.463  40.914  0.00  0.00    -0.175 NA
BRANCH  24  25
ATOM     25  C   UNL     1      44.410  79.000  40.011  0.00  0.00    +0.074 A 
ATOM     26  C   UNL     1      44.068  79.548  38.821  0.00  0.00    +0.017 A 
ATOM     27  C   UNL     1      43.065  78.975  38.021  0.00  0.00    +0.001 A 
ATOM     28  C   UNL     1      42.397  77.847  38.405  0.00  0.00    +0.000 A 
ATOM     29  C   UNL     1      42.733  77.275  39.616  0.00  0.00    +0.001 A 
ATOM     30  C   UNL     1      43.703  77.843  40.375  0.00  0.00    +0.017 A 
ENDBRANCH  24  25
ENDBRANCH   2  22
BRANCH   5  31
ATOM     31  C   UNL     1      50.907  79.171  42.883  0.00  0.00    +0.108 C 
BRANCH  31  32
ATOM     32  C   UNL     1      51.825  79.816  43.795  0.00  0.00    +0.057 C 
BRANCH  32  33
ATOM     33  C   UNL     1      51.705  79.825  45.250  0.00  0.00    +0.156 C 
ATOM     34  O   UNL     1      50.643  80.440  45.842  0.00  0.00    -0.223 OA
BRANCH  33  35
ATOM     35  C   UNL     1      51.638  78.377  45.785  0.00  0.00    +0.066 C 
BRANCH  35  36
ATOM     36  C   UNL     1      52.691  78.040  46.764  0.00  0.00    +0.166 C 
ATOM     37  O   UNL     1      52.759  79.133  47.664  0.00  0.00    -0.222 OA
BRANCH  36  38
ATOM     38  C   UNL     1      52.446  76.802  47.589  0.00  0.00    +0.147 C 
BRANCH  38  39
ATOM     39  C   UNL     1      53.576  76.504  48.503  0.00  0.00    +0.367 C 
ATOM     40  O   UNL     1      54.624  77.194  48.518  0.00  0.00    -0.246 OA
ATOM     41  O   UNL     1      53.471  75.434  49.368  0.00  0.00    -0.246 OA
ENDBRANCH  38  39
ENDBRANCH  36  38
ENDBRANCH  35  36
ENDBRANCH  33  35
ENDBRANCH  32  33
ENDBRANCH  31  32
ENDBRANCH   5  31
TORSDOF 12
