REMARK  Name = Atovaquone
REMARK  2 active torsions:
REMARK  status: ('A' for Active; 'I' for Inactive)
REMARK    1  A    between atoms: C_3  and  C_14
REMARK    2  A    between atoms: C_6  and  C_7
REMARK                            x       y       z     vdW  Elec       q    Type
REMARK                         _______ _______ _______ _____ _____    ______ ____
ROOT
ATOM      1  C   UNL     1      49.232  81.280  43.008  0.00  0.00    +0.005 C 
ATOM      2  C   UNL     1      47.843  81.448  42.442  0.00  0.00    +0.005 C 
ATOM      3  C   UNL     1      47.909  80.926  41.027  0.00  0.00    +0.029 C 
ATOM      4  C   UNL     1      48.655  81.987  40.240  0.00  0.00    +0.005 C 
ATOM      5  C   UNL     1      49.490  82.861  41.133  0.00  0.00    +0.005 C 
ATOM      6  C   UNL     1      50.198  82.097  42.230  0.00  0.00    +0.022 C 
ENDROOT
BRANCH   3   7
ATOM      7  C   UNL     1      46.622  80.574  40.451  0.00  0.00    +0.059 C 
ATOM      8  C   UNL     1      46.041  79.437  40.802  0.00  0.00    +0.195 C 
ATOM      9  C   UNL     1      44.757  78.979  40.293  0.00  0.00    +0.042 A 
ATOM     10  C   UNL     1      44.202  77.778  40.701  0.00  0.00    +0.003 A 
ATOM     11  C   UNL     1      42.986  77.335  40.225  0.00  0.00    +0.000 A 
ATOM     12  C   UNL     1      42.266  78.082  39.313  0.00  0.00    +0.000 A 
ATOM     13  C   UNL     1      42.800  79.269  38.902  0.00  0.00    +0.003 A 
ATOM     14  C   UNL     1      44.005  79.709  39.372  0.00  0.00    +0.045 A 
ATOM     15  C   UNL     1      44.601  80.980  38.947  0.00  0.00    +0.234 C 
ATOM     16  O   UNL     1      43.983  81.701  38.115  0.00  0.00    -0.283 OA
ATOM     17  C   UNL     1      45.890  81.389  39.489  0.00  0.00    +0.233 C 
ATOM     18  O   UNL     1      46.373  82.464  39.116  0.00  0.00    -0.283 OA
ATOM     19  O   UNL     1      46.688  78.596  41.727  0.00  0.00    -0.287 OA
ENDBRANCH   3   7
BRANCH   6  20
ATOM     20  C   UNL     1      50.849  83.160  43.069  0.00  0.00    -0.022 A 
ATOM     21  C   UNL     1      50.097  84.149  43.627  0.00  0.00    -0.003 A 
ATOM     22  C   UNL     1      50.665  85.142  44.404  0.00  0.00    +0.011 A 
ATOM     23  C   UNL     1      52.040  85.134  44.624  0.00  0.00    +0.058 A 
ATOM     24  C   UNL     1      52.816  84.140  44.067  0.00  0.00    +0.011 A 
ATOM     25  C   UNL     1      52.209  83.152  43.287  0.00  0.00    -0.003 A 
ATOM     26 CL   UNL     1      52.740  86.405  45.614  0.00  0.00    -0.082 Cl
ENDBRANCH   6  20
TORSDOF 2
