REMARK  Name = Atracurium
REMARK  26 active torsions:
REMARK  status: ('A' for Active; 'I' for Inactive)
REMARK    1  A    between atoms: N_2  and  C_27
REMARK    2  A    between atoms: C_7  and  O_25
REMARK    3  A    between atoms: C_8  and  O_23
REMARK    4  A    between atoms: C_11  and  C_12
REMARK    5  A    between atoms: C_12  and  C_13
REMARK    6  A    between atoms: C_15  and  O_21
REMARK    7  A    between atoms: C_16  and  O_19
REMARK    8  A    between atoms: C_27  and  C_28
REMARK    9  A    between atoms: C_28  and  C_29
REMARK   10  A    between atoms: C_29  and  O_31
REMARK   11  A    between atoms: O_31  and  C_32
REMARK   12  A    between atoms: C_32  and  C_33
REMARK   13  A    between atoms: C_33  and  C_34
REMARK   14  A    between atoms: C_34  and  C_35
REMARK   15  A    between atoms: C_35  and  C_36
REMARK   16  A    between atoms: C_36  and  O_37
REMARK   17  A    between atoms: O_37  and  C_38
REMARK   18  A    between atoms: C_38  and  C_40
REMARK   19  A    between atoms: C_40  and  C_41
REMARK   20  A    between atoms: C_41  and  N_42
REMARK   21  A    between atoms: C_47  and  O_65
REMARK   22  A    between atoms: C_48  and  O_63
REMARK   23  A    between atoms: C_51  and  C_52
REMARK   24  A    between atoms: C_52  and  C_53
REMARK   25  A    between atoms: C_55  and  O_61
REMARK   26  A    between atoms: C_56  and  O_59
REMARK                            x       y       z     vdW  Elec       q    Type
REMARK                         _______ _______ _______ _____ _____    ______ ____
ROOT
ATOM      1  C   UNL     1      42.401  78.780  37.931  0.00  0.00    +0.008 C 
ENDROOT
BRANCH   1   2
ATOM      2  C   UNL     1      41.092  78.099  37.942  0.00  0.00    +0.048 C 
BRANCH   2   3
ATOM      3  C   UNL     1      40.451  77.684  36.677  0.00  0.00    +0.208 C 
BRANCH   3   4
ATOM      4  O   UNL     1      39.196  77.144  36.672  0.00  0.00    -0.449 OA
BRANCH   4   5
ATOM      5  C   UNL     1      38.670  76.125  37.436  0.00  0.00    +0.315 C 
ATOM      6  O   UNL     1      37.941  76.400  38.378  0.00  0.00    -0.250 OA
BRANCH   5   7
ATOM      7  C   UNL     1      39.073  74.742  37.006  0.00  0.00    +0.087 C 
BRANCH   7   8
ATOM      8  C   UNL     1      38.938  74.438  35.548  0.00  0.00    -0.061 C 
BRANCH   8   9
ATOM      9  N   UNL     1      38.499  73.167  35.121  0.00  0.00    +0.393 N 
ATOM     10  C   UNL     1      37.263  73.456  34.356  0.00  0.00    -0.068 C 
ATOM     11  C   UNL     1      36.096  73.493  35.384  0.00  0.00    +0.004 C 
ATOM     12  C   UNL     1      35.897  72.045  35.690  0.00  0.00    -0.027 A 
ATOM     13  C   UNL     1      34.703  71.399  35.587  0.00  0.00    +0.035 A 
ATOM     14  C   UNL     1      34.652  69.987  35.685  0.00  0.00    +0.172 A 
ATOM     15  C   UNL     1      35.831  69.310  35.877  0.00  0.00    +0.172 A 
ATOM     16  C   UNL     1      37.044  70.034  35.986  0.00  0.00    +0.034 A 
ATOM     17  C   UNL     1      37.114  71.364  35.904  0.00  0.00    -0.042 A 
ATOM     18  C   UNL     1      38.377  72.161  36.123  0.00  0.00    -0.027 C 
ATOM     19  C   UNL     1      39.403  72.525  34.124  0.00  0.00    -0.095 C 
BRANCH  15  20
ATOM     20  O   UNL     1      35.745  67.973  35.939  0.00  0.00    -0.468 OA
ATOM     21  C   UNL     1      35.235  67.001  36.681  0.00  0.00    +0.253 C 
ENDBRANCH  15  20
BRANCH  14  22
ATOM     22  O   UNL     1      33.389  69.418  35.586  0.00  0.00    -0.468 OA
ATOM     23  C   UNL     1      32.722  69.401  34.312  0.00  0.00    +0.253 C 
ENDBRANCH  14  22
BRANCH  18  24
ATOM     24  C   UNL     1      38.437  72.527  37.545  0.00  0.00    +0.010 C 
BRANCH  24  25
ATOM     25  C   UNL     1      39.166  71.507  38.359  0.00  0.00    -0.021 A 
ATOM     26  C   UNL     1      39.228  71.423  39.708  0.00  0.00    +0.036 A 
ATOM     27  C   UNL     1      40.075  70.446  40.280  0.00  0.00    +0.172 A 
ATOM     28  C   UNL     1      40.856  69.565  39.536  0.00  0.00    +0.172 A 
ATOM     29  C   UNL     1      40.740  69.714  38.152  0.00  0.00    +0.040 A 
ATOM     30  C   UNL     1      39.938  70.633  37.584  0.00  0.00    -0.001 A 
BRANCH  28  31
ATOM     31  O   UNL     1      41.685  68.636  40.134  0.00  0.00    -0.468 OA
ATOM     32  C   UNL     1      42.957  68.907  40.575  0.00  0.00    +0.253 C 
ENDBRANCH  28  31
BRANCH  27  33
ATOM     33  O   UNL     1      40.156  70.346  41.682  0.00  0.00    -0.468 OA
ATOM     34  C   UNL     1      39.019  69.793  42.381  0.00  0.00    +0.253 C 
ENDBRANCH  27  33
ENDBRANCH  24  25
ENDBRANCH  18  24
ENDBRANCH   8   9
ENDBRANCH   7   8
ENDBRANCH   5   7
ENDBRANCH   4   5
ENDBRANCH   3   4
ENDBRANCH   2   3
ENDBRANCH   1   2
BRANCH   1  35
ATOM     35  C   UNL     1      42.943  79.235  39.267  0.00  0.00    +0.048 C 
BRANCH  35  36
ATOM     36  C   UNL     1      44.334  79.798  38.978  0.00  0.00    +0.208 C 
BRANCH  36  37
ATOM     37  O   UNL     1      44.489  81.072  39.485  0.00  0.00    -0.449 OA
BRANCH  37  38
ATOM     38  C   UNL     1      45.340  81.966  39.535  0.00  0.00    +0.315 C 
ATOM     39  O   UNL     1      45.871  81.876  38.090  0.00  0.00    -0.250 OA
BRANCH  38  40
ATOM     40  C   UNL     1      46.190  83.040  39.995  0.00  0.00    +0.087 C 
BRANCH  40  41
ATOM     41  C   UNL     1      46.871  82.921  41.292  0.00  0.00    -0.061 C 
BRANCH  41  43
ATOM     42  C   UNL     1      45.694  80.887  41.632  0.00  0.00    -0.095 C 
ATOM     43  N   UNL     1      46.710  81.770  42.103  0.00  0.00    +0.393 N 
ATOM     44  C   UNL     1      46.261  82.210  43.424  0.00  0.00    -0.068 C 
ATOM     45  C   UNL     1      47.211  82.910  44.313  0.00  0.00    +0.004 C 
ATOM     46  C   UNL     1      48.555  83.050  43.755  0.00  0.00    -0.027 A 
ATOM     47  C   UNL     1      49.442  84.037  44.152  0.00  0.00    +0.035 A 
ATOM     48  C   UNL     1      50.655  84.195  43.557  0.00  0.00    +0.172 A 
ATOM     49  C   UNL     1      51.022  83.344  42.506  0.00  0.00    +0.172 A 
ATOM     50  C   UNL     1      50.137  82.372  42.133  0.00  0.00    +0.034 A 
ATOM     51  C   UNL     1      48.915  82.174  42.704  0.00  0.00    -0.042 A 
ATOM     52  C   UNL     1      48.035  81.124  42.276  0.00  0.00    -0.027 C 
BRANCH  48  53
ATOM     53  O   UNL     1      51.593  85.140  43.915  0.00  0.00    -0.468 OA
ATOM     54  C   UNL     1      51.287  85.978  45.041  0.00  0.00    +0.253 C 
ENDBRANCH  48  53
BRANCH  49  55
ATOM     55  O   UNL     1      52.264  83.533  41.896  0.00  0.00    -0.468 OA
ATOM     56  C   UNL     1      53.343  82.661  42.203  0.00  0.00    +0.253 C 
ENDBRANCH  49  55
BRANCH  52  57
ATOM     57  C   UNL     1      47.980  79.794  42.873  0.00  0.00    +0.010 C 
BRANCH  57  58
ATOM     58  C   UNL     1      48.598  78.712  42.095  0.00  0.00    -0.021 A 
ATOM     59  C   UNL     1      47.724  77.655  41.784  0.00  0.00    +0.036 A 
ATOM     60  C   UNL     1      48.117  76.494  41.236  0.00  0.00    +0.172 A 
ATOM     61  C   UNL     1      49.474  76.256  40.933  0.00  0.00    +0.172 A 
ATOM     62  C   UNL     1      50.320  77.297  41.236  0.00  0.00    +0.040 A 
ATOM     63  C   UNL     1      49.898  78.507  41.805  0.00  0.00    -0.001 A 
BRANCH  60  64
ATOM     64  O   UNL     1      47.273  75.437  40.909  0.00  0.00    -0.468 OA
ATOM     65  C   UNL     1      45.916  75.588  41.377  0.00  0.00    +0.253 C 
ENDBRANCH  60  64
BRANCH  61  66
ATOM     66  O   UNL     1      49.807  75.063  40.411  0.00  0.00    -0.468 OA
ATOM     67  C   UNL     1      50.170  73.828  40.855  0.00  0.00    +0.253 C 
ENDBRANCH  61  66
ENDBRANCH  57  58
ENDBRANCH  52  57
ENDBRANCH  41  43
ENDBRANCH  40  41
ENDBRANCH  38  40
ENDBRANCH  37  38
ENDBRANCH  36  37
ENDBRANCH  35  36
ENDBRANCH   1  35
TORSDOF 26
