REMARK  Name = Atropine
REMARK  5 active torsions:
REMARK  status: ('A' for Active; 'I' for Inactive)
REMARK    1  A    between atoms: C_8  and  O_10
REMARK    2  A    between atoms: O_10  and  C_11
REMARK    3  A    between atoms: C_11  and  C_13
REMARK    4  A    between atoms: C_13  and  C_14
REMARK    5  A    between atoms: C_13  and  C_16
REMARK                            x       y       z     vdW  Elec       q    Type
REMARK                         _______ _______ _______ _____ _____    ______ ____
ROOT
ATOM      1  C   UNL     1      48.243  81.222  41.870  0.00  0.00    +0.323 C 
ATOM      2  O   UNL     1      48.155  79.973  41.965  0.00  0.00    -0.250 OA
ENDROOT
BRANCH   1   3
ATOM      3  O   UNL     1      47.116  81.954  41.604  0.00  0.00    -0.452 OA
BRANCH   3  11
ATOM      4  C   UNL     1      43.480  79.719  38.369  0.00  0.00    +0.090 C 
ATOM      5  N   UNL     1      44.408  80.271  39.323  0.00  0.00    -0.274 NA
ATOM      6  C   UNL     1      44.764  79.348  40.374  0.00  0.00    +0.061 C 
ATOM      7  C   UNL     1      45.518  78.274  39.619  0.00  0.00    +0.017 C 
ATOM      8  C   UNL     1      46.345  79.097  38.653  0.00  0.00    +0.017 C 
ATOM      9  C   UNL     1      45.675  80.450  38.634  0.00  0.00    +0.061 C 
ATOM     10  C   UNL     1      46.462  81.490  39.385  0.00  0.00    +0.060 C 
ATOM     11  C   UNL     1      46.056  81.442  40.842  0.00  0.00    +0.172 C 
ATOM     12  C   UNL     1      45.745  80.032  41.291  0.00  0.00    +0.060 C 
ENDBRANCH   3  11
ENDBRANCH   1   3
BRANCH   1  13
ATOM     13  C   UNL     1      49.579  81.840  42.056  0.00  0.00    +0.154 C 
BRANCH  13  14
ATOM     14  C   UNL     1      49.470  83.256  42.485  0.00  0.00    -0.009 A 
ATOM     15  C   UNL     1      48.322  83.658  43.125  0.00  0.00    -0.004 A 
ATOM     16  C   UNL     1      48.137  84.969  43.563  0.00  0.00    -0.000 A 
ATOM     17  C   UNL     1      49.141  85.898  43.348  0.00  0.00    -0.000 A 
ATOM     18  C   UNL     1      50.300  85.485  42.700  0.00  0.00    -0.000 A 
ATOM     19  C   UNL     1      50.459  84.181  42.276  0.00  0.00    -0.004 A 
ENDBRANCH  13  14
BRANCH  13  20
ATOM     20  C   UNL     1      50.373  81.103  43.133  0.00  0.00    +0.198 C 
ATOM     21  O   UNL     1      51.718  81.411  43.107  0.00  0.00    -0.219 OA
ENDBRANCH  13  20
ENDBRANCH   1  13
TORSDOF 5
