REMARK  Name = Avanafil
REMARK  7 active torsions:
REMARK  status: ('A' for Active; 'I' for Inactive)
REMARK    1  A    between atoms: O_2  and  C_3
REMARK    2  A    between atoms: C_6  and  C_9
REMARK    3  A    between atoms: C_9  and  N_10
REMARK    4  A    between atoms: C_16  and  C_17
REMARK    5  A    between atoms: N_19  and  C_20
REMARK    6  A    between atoms: C_20  and  C_21
REMARK    7  A    between atoms: C_31  and  C_32
REMARK                            x       y       z     vdW  Elec       q    Type
REMARK                         _______ _______ _______ _____ _____    ______ ____
ROOT
ATOM      1  N   UNL     1      46.537  80.067  40.035  0.00  0.00    -0.215 NA
ATOM      2  C   UNL     1      45.464  79.233  40.399  0.00  0.00    +0.157 A 
ATOM      3  N   UNL     1      45.602  78.388  41.479  0.00  0.00    -0.197 NA
ATOM      4  C   UNL     1      44.675  77.523  41.876  0.00  0.00    +0.221 A 
ATOM      5  N   UNL     1      43.540  77.499  41.154  0.00  0.00    -0.212 NA
ATOM      6  C   UNL     1      43.340  78.293  40.094  0.00  0.00    +0.109 A 
ATOM      7  C   UNL     1      44.306  79.209  39.663  0.00  0.00    +0.107 A 
ATOM      8  N   UNL     1      44.820  76.642  42.980  0.00  0.00    -0.277 N 
ATOM      9  C   UNL     1      43.895  75.624  43.439  0.00  0.00    +0.094 C 
ATOM     10  C   UNL     1      44.806  74.425  43.588  0.00  0.00    +0.023 C 
ATOM     11  C   UNL     1      46.067  75.047  44.146  0.00  0.00    +0.024 C 
ATOM     12  C   UNL     1      45.930  76.558  43.898  0.00  0.00    +0.108 C 
ENDROOT
BRANCH   7  13
ATOM     13  C   UNL     1      44.047  80.070  38.517  0.00  0.00    +0.269 C 
ATOM     14  O   UNL     1      44.926  80.646  37.821  0.00  0.00    -0.268 OA
ATOM     15  N   UNL     1      42.722  80.350  38.059  0.00  0.00    -0.193 NA
BRANCH  15  16
ATOM     16  C   UNL     1      42.244  79.872  36.749  0.00  0.00    +0.181 C 
BRANCH  16  17
ATOM     17  C   UNL     1      41.402  78.682  36.856  0.00  0.00    +0.161 A 
ATOM     18  N   UNL     1      41.369  77.960  37.982  0.00  0.00    -0.227 NA
ATOM     19  C   UNL     1      40.612  76.859  38.127  0.00  0.00    +0.102 A 
ATOM     20  C   UNL     1      39.838  76.453  37.081  0.00  0.00    +0.041 A 
ATOM     21  C   UNL     1      39.852  77.180  35.903  0.00  0.00    +0.102 A 
ATOM     22  N   UNL     1      40.646  78.290  35.826  0.00  0.00    -0.227 NA
ENDBRANCH  16  17
ENDBRANCH  15  16
ENDBRANCH   7  13
BRANCH  12  23
ATOM     23  C   UNL     1      45.592  77.170  45.242  0.00  0.00    +0.202 C 
ATOM     24  O   UNL     1      46.745  77.708  45.771  0.00  0.00    -0.219 OA
ENDBRANCH  12  23
BRANCH   1  25
ATOM     25  C   UNL     1      47.814  80.029  40.727  0.00  0.00    +0.140 C 
BRANCH  25  29
ATOM     26  C   UNL     1      49.305  83.711  42.215  0.00  0.00    +0.149 A 
ATOM     27  C   UNL     1      47.971  83.410  42.345  0.00  0.00    +0.091 A 
ATOM     28  C   UNL     1      47.438  82.210  41.872  0.00  0.00    +0.012 A 
ATOM     29  C   UNL     1      48.265  81.316  41.268  0.00  0.00    +0.000 A 
ATOM     30  C   UNL     1      49.605  81.606  41.132  0.00  0.00    +0.001 A 
ATOM     31  C   UNL     1      50.107  82.779  41.597  0.00  0.00    +0.038 A 
ATOM     32 CL   UNL     1      46.962  84.614  43.150  0.00  0.00    -0.079 Cl
BRANCH  26  34
ATOM     33  C   UNL     1      51.245  85.109  42.711  0.00  0.00    +0.253 C 
ATOM     34  O   UNL     1      49.830  84.922  42.694  0.00  0.00    -0.471 OA
ENDBRANCH  26  34
ENDBRANCH  25  29
ENDBRANCH   1  25
TORSDOF 7
