REMARK  Name = Avapritinib
REMARK  3 active torsions:
REMARK  status: ('A' for Active; 'I' for Inactive)
REMARK    1  A    between atoms: C_2  and  C_3
REMARK    2  A    between atoms: C_2  and  C_10
REMARK    3  A    between atoms: C_29  and  C_31
REMARK                            x       y       z     vdW  Elec       q    Type
REMARK                         _______ _______ _______ _____ _____    ______ ____
ROOT
ATOM      1  C   UNL     1      48.532  81.635  41.245  0.00  0.00    +0.036 A 
ATOM      2  C   UNL     1      47.943  82.265  40.169  0.00  0.00    +0.101 A 
ATOM      3  N   UNL     1      46.870  81.701  39.587  0.00  0.00    -0.212 NA
ATOM      4  C   UNL     1      46.321  80.546  39.986  0.00  0.00    +0.220 A 
ATOM      5  N   UNL     1      46.887  79.919  41.037  0.00  0.00    -0.212 NA
ATOM      6  C   UNL     1      47.961  80.440  41.655  0.00  0.00    +0.101 A 
ATOM      7  N   UNL     1      45.161  79.975  39.332  0.00  0.00    -0.275 N 
ATOM      8  C   UNL     1      43.893  80.556  39.673  0.00  0.00    +0.115 C 
ATOM      9  C   UNL     1      42.764  79.554  39.664  0.00  0.00    +0.114 C 
ATOM     10  N   UNL     1      43.111  78.367  38.927  0.00  0.00    -0.288 N 
ATOM     11  C   UNL     1      44.045  78.478  37.827  0.00  0.00    +0.114 C 
ATOM     12  C   UNL     1      45.367  78.897  38.414  0.00  0.00    +0.115 C 
ATOM     13  C   UNL     1      42.577  77.105  39.250  0.00  0.00    +0.151 A 
ATOM     14  N   UNL     1      42.992  76.466  40.390  0.00  0.00    -0.206 NA
ATOM     15  C   UNL     1      42.504  75.262  40.740  0.00  0.00    +0.221 A 
ATOM     16  N   UNL     1      41.586  74.635  39.984  0.00  0.00    -0.142 NA
ATOM     17  N   UNL     1      41.157  75.218  38.873  0.00  0.00    -0.224 N 
ATOM     18  C   UNL     1      41.636  76.435  38.497  0.00  0.00    +0.114 A 
ATOM     19  C   UNL     1      41.020  76.794  37.312  0.00  0.00    +0.024 A 
ATOM     20  C   UNL     1      40.144  75.778  36.949  0.00  0.00    +0.024 A 
ATOM     21  C   UNL     1      40.265  74.832  37.941  0.00  0.00    +0.101 A 
ENDROOT
BRANCH  20  22
ATOM     22  C   UNL     1      39.291  75.750  35.764  0.00  0.00    +0.041 A 
ATOM     23  C   UNL     1      38.553  74.662  35.291  0.00  0.00    +0.097 A 
ATOM     24  N   UNL     1      37.896  75.035  34.173  0.00  0.00    -0.247 N 
ATOM     25  N   UNL     1      38.200  76.295  33.947  0.00  0.00    -0.168 NA
ATOM     26  C   UNL     1      39.034  76.764  34.877  0.00  0.00    +0.122 A 
ATOM     27  C   UNL     1      37.013  74.250  33.338  0.00  0.00    +0.154 C 
ENDBRANCH  20  22
BRANCH   1  29
ATOM     28  C   UNL     1      50.153  81.188  42.969  0.00  0.00    +0.028 C 
ATOM     29  C   UNL     1      49.720  82.198  41.941  0.00  0.00    +0.117 C 
ATOM     30  N   UNL     1      50.804  82.293  40.966  0.00  0.00    -0.125 NA
BRANCH  29  31
ATOM     31  C   UNL     1      49.448  83.526  42.548  0.00  0.00    -0.003 A 
ATOM     32  C   UNL     1      48.235  83.847  43.111  0.00  0.00    -0.000 A 
ATOM     33  C   UNL     1      48.028  85.105  43.667  0.00  0.00    +0.029 A 
ATOM     34  C   UNL     1      49.022  86.070  43.675  0.00  0.00    +0.140 A 
ATOM     35  C   UNL     1      50.234  85.749  43.113  0.00  0.00    +0.029 A 
ATOM     36  C   UNL     1      50.443  84.488  42.555  0.00  0.00    -0.000 A 
ATOM     37  F   UNL     1      48.815  87.307  44.224  0.00  0.00    -0.204 F 
ENDBRANCH  29  31
ENDBRANCH   1  29
TORSDOF 3
