REMARK  Name = Axitinib
REMARK  5 active torsions:
REMARK  status: ('A' for Active; 'I' for Inactive)
REMARK    1  A    between atoms: C_3  and  C_5
REMARK    2  A    between atoms: C_10  and  S_11
REMARK    3  A    between atoms: S_11  and  C_12
REMARK    4  A    between atoms: C_18  and  C_21
REMARK    5  A    between atoms: C_22  and  C_23
REMARK                            x       y       z     vdW  Elec       q    Type
REMARK                         _______ _______ _______ _____ _____    ______ ____
ROOT
ATOM      1  C   UNL     1      47.797  81.333  41.593  0.00  0.00    +0.031 A 
ATOM      2  C   UNL     1      47.462  82.277  40.639  0.00  0.00    +0.027 A 
ATOM      3  C   UNL     1      46.467  82.007  39.692  0.00  0.00    +0.105 A 
ATOM      4  C   UNL     1      45.825  80.806  39.711  0.00  0.00    +0.039 A 
ATOM      5  C   UNL     1      46.154  79.867  40.661  0.00  0.00    +0.004 A 
ATOM      6  C   UNL     1      47.123  80.132  41.582  0.00  0.00    +0.007 A 
ATOM      7  C   UNL     1      44.891  80.776  38.662  0.00  0.00    +0.104 A 
ATOM      8  N   UNL     1      45.045  81.978  38.087  0.00  0.00    -0.148 NA
ATOM      9  N   UNL     1      45.959  82.712  38.672  0.00  0.00    -0.148 NA
ENDROOT
BRANCH   7  10
ATOM     10  C   UNL     1      44.026  79.662  38.348  0.00  0.00    +0.023 C 
ATOM     11  C   UNL     1      43.493  78.805  39.147  0.00  0.00    +0.021 C 
BRANCH  11  12
ATOM     12  C   UNL     1      42.497  77.810  38.836  0.00  0.00    +0.081 A 
ATOM     13  C   UNL     1      41.706  77.984  37.673  0.00  0.00    +0.019 A 
ATOM     14  C   UNL     1      40.729  77.096  37.309  0.00  0.00    +0.003 A 
ATOM     15  C   UNL     1      40.480  75.990  38.072  0.00  0.00    +0.021 A 
ATOM     16  C   UNL     1      41.265  75.829  39.217  0.00  0.00    +0.099 A 
ATOM     17  N   UNL     1      42.213  76.716  39.543  0.00  0.00    -0.244 NA
ENDBRANCH  11  12
ENDBRANCH   7  10
BRANCH   1  18
ATOM     18  S   UNL     1      49.085  81.583  42.742  0.00  0.00    -0.087 S 
BRANCH  18  24
ATOM     19  C   UNL     1      50.544  83.470  43.990  0.00  0.00    +0.061 A 
ATOM     20  C   UNL     1      50.718  84.738  44.483  0.00  0.00    +0.005 A 
ATOM     21  C   UNL     1      49.754  85.732  44.404  0.00  0.00    +0.000 A 
ATOM     22  C   UNL     1      48.542  85.425  43.790  0.00  0.00    +0.001 A 
ATOM     23  C   UNL     1      48.321  84.167  43.281  0.00  0.00    +0.007 A 
ATOM     24  C   UNL     1      49.303  83.200  43.377  0.00  0.00    +0.034 A 
BRANCH  19  27
ATOM     25  C   UNL     1      52.834  80.720  45.461  0.00  0.00    +0.139 C 
ATOM     26  N   UNL     1      51.749  81.677  45.258  0.00  0.00    -0.200 NA
ATOM     27  C   UNL     1      51.559  82.430  44.076  0.00  0.00    +0.265 C 
ATOM     28  O   UNL     1      52.284  82.190  43.083  0.00  0.00    -0.268 OA
ENDBRANCH  19  27
ENDBRANCH  18  24
ENDBRANCH   1  18
TORSDOF 5
