REMARK  Name = Azacitidine
REMARK  2 active torsions:
REMARK  status: ('A' for Active; 'I' for Inactive)
REMARK    1  A    between atoms: N_7  and  C1*_8
REMARK    2  A    between atoms: C4*_11  and  C5*_13
REMARK                            x       y       z     vdW  Elec       q    Type
REMARK                         _______ _______ _______ _____ _____    ______ ____
ROOT
ATOM      1  C1* UNL     1      44.684  79.007  40.655  0.00  0.00    +0.243 C 
ATOM      2  C2* UNL     1      43.657  78.566  39.602  0.00  0.00    +0.234 C 
ATOM      3  C3* UNL     1      43.219  77.276  40.313  0.00  0.00    +0.216 C 
ATOM      4  C4* UNL     1      44.495  76.852  40.959  0.00  0.00    +0.183 C 
ATOM      5  O4* UNL     1      45.428  77.869  40.773  0.00  0.00    -0.330 OA
ATOM      6  O3* UNL     1      42.682  76.363  39.442  0.00  0.00    -0.218 OA
ATOM      7  O2* UNL     1      44.308  78.260  38.425  0.00  0.00    -0.216 OA
ENDROOT
BRANCH   1  14
ATOM      8  C   UNL     1      46.484  80.551  40.955  0.00  0.00    +0.187 A 
ATOM      9  N   UNL     1      47.210  81.642  40.641  0.00  0.00    -0.190 NA
ATOM     10  C   UNL     1      46.859  82.407  39.596  0.00  0.00    +0.262 A 
ATOM     11  N   UNL     1      45.765  82.034  38.890  0.00  0.00    -0.156 NA
ATOM     12  C   UNL     1      45.049  80.945  39.210  0.00  0.00    +0.356 A 
ATOM     13  O   UNL     1      44.026  80.584  38.563  0.00  0.00    -0.244 OA
ATOM     14  N   UNL     1      45.395  80.175  40.257  0.00  0.00    -0.237 N 
ATOM     15  N   UNL     1      47.612  83.567  39.246  0.00  0.00    -0.086 NA
ENDBRANCH   1  14
BRANCH   4  16
ATOM     16  C5* UNL     1      44.284  76.670  42.454  0.00  0.00    +0.214 C 
ATOM     17  O5* UNL     1      45.496  76.732  43.137  0.00  0.00    -0.218 OA
ENDBRANCH   4  16
TORSDOF 2
