REMARK  Name = Azanidazole
REMARK  3 active torsions:
REMARK  status: ('A' for Active; 'I' for Inactive)
REMARK    1  A    between atoms: C_3  and  N_16
REMARK    2  A    between atoms: C_6  and  C_7
REMARK    3  A    between atoms: C_8  and  C_9
REMARK                            x       y       z     vdW  Elec       q    Type
REMARK                         _______ _______ _______ _____ _____    ______ ____
ROOT
ATOM      1  C   UNL     1      50.148  83.698  41.534  0.00  0.00    +0.134 C 
ATOM      2  N   UNL     1      50.190  82.522  42.377  0.00  0.00    -0.291 N 
ATOM      3  C   UNL     1      51.309  82.043  42.946  0.00  0.00    +0.226 A 
ATOM      4  C   UNL     1      50.918  80.919  43.664  0.00  0.00    +0.143 A 
ATOM      5  N   UNL     1      49.612  80.784  43.492  0.00  0.00    -0.223 NA
ATOM      6  C   UNL     1      49.126  81.766  42.696  0.00  0.00    +0.145 A 
ENDROOT
BRANCH   3   7
ATOM      7  N   UNL     1      52.639  82.564  42.849  0.00  0.00    +0.076 N 
ATOM      8  O   UNL     1      53.498  82.296  43.706  0.00  0.00    -0.125 OA
ATOM      9  O   UNL     1      52.936  83.371  41.779  0.00  0.00    -0.125 OA
ENDBRANCH   3   7
BRANCH   6  10
ATOM     10  C   UNL     1      47.743  81.962  42.274  0.00  0.00    +0.039 C 
ATOM     11  C   UNL     1      47.135  81.010  41.589  0.00  0.00    +0.022 C 
BRANCH  11  12
ATOM     12  C   UNL     1      46.352  81.255  40.392  0.00  0.00    +0.086 A 
ATOM     13  N   UNL     1      45.336  80.430  40.102  0.00  0.00    -0.211 NA
ATOM     14  C   UNL     1      44.564  80.576  39.027  0.00  0.00    +0.257 A 
ATOM     15  N   UNL     1      44.811  81.595  38.196  0.00  0.00    -0.210 NA
ATOM     16  C   UNL     1      45.813  82.462  38.423  0.00  0.00    +0.103 A 
ATOM     17  C   UNL     1      46.617  82.303  39.549  0.00  0.00    +0.040 A 
ATOM     18  N   UNL     1      43.486  79.668  38.754  0.00  0.00    -0.086 NA
ENDBRANCH  11  12
ENDBRANCH   6  10
TORSDOF 3
