REMARK  Name = Azaribine
REMARK  8 active torsions:
REMARK  status: ('A' for Active; 'I' for Inactive)
REMARK    1  A    between atoms: C_2  and  O_4
REMARK    2  A    between atoms: O_4  and  C_5
REMARK    3  A    between atoms: C_5  and  C_6
REMARK    4  A    between atoms: C_7  and  O_23
REMARK    5  A    between atoms: C_8  and  O_19
REMARK    6  A    between atoms: C_9  and  N_11
REMARK    7  A    between atoms: O_19  and  C_20
REMARK    8  A    between atoms: O_23  and  C_24
REMARK                            x       y       z     vdW  Elec       q    Type
REMARK                         _______ _______ _______ _____ _____    ______ ____
ROOT
ATOM      1  C   UNL     1      46.098  77.740  42.091  0.00  0.00    +0.205 C 
ATOM      2  C   UNL     1      45.003  77.340  41.142  0.00  0.00    +0.244 C 
ATOM      3  C   UNL     1      45.039  78.475  40.141  0.00  0.00    +0.262 C 
ATOM      4  C   UNL     1      45.495  79.618  41.018  0.00  0.00    +0.270 C 
ATOM      5  O   UNL     1      46.235  79.105  42.046  0.00  0.00    -0.326 OA
ENDROOT
BRANCH   4   6
ATOM      6  N   UNL     1      46.160  80.603  40.225  0.00  0.00    -0.171 N 
ATOM      7  C   UNL     1      45.514  81.375  39.342  0.00  0.00    +0.371 A 
ATOM      8  O   UNL     1      44.272  81.239  39.192  0.00  0.00    -0.243 OA
ATOM      9  N   UNL     1      46.157  82.307  38.595  0.00  0.00    -0.151 NA
ATOM     10  C   UNL     1      47.480  82.466  38.740  0.00  0.00    +0.304 A 
ATOM     11  O   UNL     1      48.097  83.314  38.068  0.00  0.00    -0.263 OA
ATOM     12  C   UNL     1      48.153  81.677  39.646  0.00  0.00    +0.183 A 
ATOM     13  N   UNL     1      47.462  80.769  40.359  0.00  0.00    -0.157 NA
ENDBRANCH   4   6
BRANCH   1  14
ATOM     14  C   UNL     1      47.410  77.145  41.619  0.00  0.00    +0.242 C 
BRANCH  14  15
ATOM     15  O   UNL     1      48.449  78.109  41.618  0.00  0.00    -0.446 OA
BRANCH  15  17
ATOM     16  C   UNL     1      50.504  78.777  40.305  0.00  0.00    +0.121 C 
ATOM     17  C   UNL     1      49.675  77.812  41.061  0.00  0.00    +0.318 C 
ATOM     18  O   UNL     1      50.112  76.641  41.208  0.00  0.00    -0.250 OA
ENDBRANCH  15  17
ENDBRANCH  14  15
ENDBRANCH   1  14
BRANCH   3  19
ATOM     19  O   UNL     1      43.785  78.785  39.623  0.00  0.00    -0.444 OA
BRANCH  19  20
ATOM     20  C   UNL     1      43.128  78.025  38.673  0.00  0.00    +0.318 C 
ATOM     21  O   UNL     1      43.675  76.984  38.266  0.00  0.00    -0.250 OA
ATOM     22  C   UNL     1      41.805  78.505  38.198  0.00  0.00    +0.121 C 
ENDBRANCH  19  20
ENDBRANCH   3  19
BRANCH   2  23
ATOM     23  O   UNL     1      43.768  77.137  41.725  0.00  0.00    -0.446 OA
BRANCH  23  24
ATOM     24  C   UNL     1      43.110  75.928  41.823  0.00  0.00    +0.318 C 
ATOM     25  O   UNL     1      43.572  74.985  41.120  0.00  0.00    -0.250 OA
ATOM     26  C   UNL     1      41.936  75.671  42.669  0.00  0.00    +0.121 C 
ENDBRANCH  23  24
ENDBRANCH   2  23
TORSDOF 8
