REMARK  Name = Azatadine
REMARK  0 active torsions:
REMARK  status: ('A' for Active; 'I' for Inactive)
REMARK                            x       y       z     vdW  Elec       q    Type
REMARK                         _______ _______ _______ _____ _____    ______ ____
ROOT
ATOM      1  C   UNL     1      40.150  78.216  36.689  0.00  0.00    +0.090 C 
ATOM      2  N   UNL     1      41.274  78.180  37.540  0.00  0.00    -0.271 NA
ATOM      3  C   UNL     1      41.048  78.419  38.917  0.00  0.00    +0.077 C 
ATOM      4  C   UNL     1      42.330  77.971  39.652  0.00  0.00    +0.039 C 
ATOM      5  C   UNL     1      43.373  79.001  39.322  0.00  0.00    -0.040 C 
ATOM      6  C   UNL     1      44.515  79.105  39.890  0.00  0.00    +0.009 C 
ATOM      7  C   UNL     1      44.871  78.104  40.926  0.00  0.00    -0.003 A 
ATOM      8  C   UNL     1      44.500  76.838  40.543  0.00  0.00    -0.000 A 
ATOM      9  C   UNL     1      44.752  75.793  41.388  0.00  0.00    -0.000 A 
ATOM     10  C   UNL     1      45.376  76.064  42.601  0.00  0.00    -0.000 A 
ATOM     11  C   UNL     1      45.738  77.341  42.953  0.00  0.00    -0.004 A 
ATOM     12  C   UNL     1      45.495  78.439  42.110  0.00  0.00    -0.022 A 
ATOM     13  C   UNL     1      46.042  79.654  42.716  0.00  0.00    +0.031 C 
ATOM     14  C   UNL     1      46.013  80.930  42.015  0.00  0.00    +0.033 C 
ATOM     15  C   UNL     1      46.006  81.028  40.558  0.00  0.00    -0.004 A 
ATOM     16  C   UNL     1      45.361  80.289  39.594  0.00  0.00    +0.077 A 
ATOM     17  N   UNL     1      45.396  80.511  38.299  0.00  0.00    -0.244 NA
ATOM     18  C   UNL     1      46.122  81.549  37.825  0.00  0.00    +0.099 A 
ATOM     19  C   UNL     1      46.804  82.343  38.720  0.00  0.00    +0.020 A 
ATOM     20  C   UNL     1      46.768  82.114  40.075  0.00  0.00    -0.001 A 
ATOM     21  C   UNL     1      42.989  79.737  38.102  0.00  0.00    +0.039 C 
ATOM     22  C   UNL     1      42.487  78.702  37.026  0.00  0.00    +0.077 C 
ENDROOT
TORSDOF 0
