REMARK  Name = Azathioprine
REMARK  3 active torsions:
REMARK  status: ('A' for Active; 'I' for Inactive)
REMARK    1  A    between atoms: C_5  and  N_17
REMARK    2  A    between atoms: C_6  and  S_7
REMARK    3  A    between atoms: S_7  and  C_8
REMARK                            x       y       z     vdW  Elec       q    Type
REMARK                         _______ _______ _______ _____ _____    ______ ____
ROOT
ATOM      1  S   UNL     1      47.342  81.134  42.380  0.00  0.00    -0.046 S 
ENDROOT
BRANCH   1   2
ATOM      2  C   UNL     1      46.624  81.500  40.794  0.00  0.00    +0.135 A 
ATOM      3  N   UNL     1      46.914  82.614  40.105  0.00  0.00    -0.216 NA
ATOM      4  C   UNL     1      46.349  82.865  38.898  0.00  0.00    +0.201 A 
ATOM      5  N   UNL     1      45.477  81.998  38.353  0.00  0.00    -0.203 NA
ATOM      6  C   UNL     1      45.138  80.861  38.984  0.00  0.00    +0.185 A 
ATOM      7  C   UNL     1      45.729  80.623  40.224  0.00  0.00    +0.143 A 
ATOM      8  N   UNL     1      45.227  79.443  40.628  0.00  0.00    -0.219 NA
ATOM      9  C   UNL     1      44.375  78.970  39.703  0.00  0.00    +0.200 A 
ATOM     10  N   UNL     1      44.313  79.841  38.681  0.00  0.00    -0.203 NA
ENDBRANCH   1   2
BRANCH   1  16
ATOM     11  C   UNL     1      50.391  80.159  42.268  0.00  0.00    +0.133 C 
ATOM     12  N   UNL     1      50.111  81.560  42.537  0.00  0.00    -0.301 N 
ATOM     13  C   UNL     1      51.014  82.540  42.755  0.00  0.00    +0.181 A 
ATOM     14  N   UNL     1      50.326  83.687  42.963  0.00  0.00    -0.200 NA
ATOM     15  C   UNL     1      49.001  83.394  42.871  0.00  0.00    +0.248 A 
ATOM     16  C   UNL     1      48.858  82.049  42.601  0.00  0.00    +0.134 A 
BRANCH  15  17
ATOM     17  N   UNL     1      47.976  84.345  43.031  0.00  0.00    +0.078 N 
ATOM     18  O   UNL     1      48.289  85.491  43.457  0.00  0.00    -0.125 OA
ATOM     19  O   UNL     1      46.670  84.045  42.735  0.00  0.00    -0.125 OA
ENDBRANCH  15  17
ENDBRANCH   1  16
TORSDOF 3
