REMARK  Name = Azelaic_Acid
REMARK  8 active torsions:
REMARK  status: ('A' for Active; 'I' for Inactive)
REMARK    1  A    between atoms: C_1  and  C_2
REMARK    2  A    between atoms: C_1  and  C_8
REMARK    3  A    between atoms: C_2  and  C_3
REMARK    4  A    between atoms: C_3  and  C_4
REMARK    5  A    between atoms: C_4  and  C_5
REMARK    6  A    between atoms: C_8  and  C_9
REMARK    7  A    between atoms: C_9  and  C_10
REMARK    8  A    between atoms: C_10  and  C_11
REMARK                            x       y       z     vdW  Elec       q    Type
REMARK                         _______ _______ _______ _____ _____    ______ ____
ROOT
ATOM      1  C   UNL     1      47.489  81.248  41.113  0.00  0.00    +0.000 C 
ENDROOT
BRANCH   1   2
ATOM      2  C   UNL     1      48.562  80.631  41.964  0.00  0.00    +0.001 C 
BRANCH   2   3
ATOM      3  C   UNL     1      49.828  81.443  41.808  0.00  0.00    +0.012 C 
BRANCH   3   4
ATOM      4  C   UNL     1      50.520  81.478  43.165  0.00  0.00    +0.114 C 
BRANCH   4   5
ATOM      5  C   UNL     1      51.827  82.131  43.012  0.00  0.00    +0.365 C 
ATOM      6  O   UNL     1      52.152  82.616  41.904  0.00  0.00    -0.246 OA
ATOM      7  O   UNL     1      52.715  82.226  44.062  0.00  0.00    -0.246 OA
ENDBRANCH   4   5
ENDBRANCH   3   4
ENDBRANCH   2   3
ENDBRANCH   1   2
BRANCH   1   8
ATOM      8  C   UNL     1      46.181  80.511  41.120  0.00  0.00    +0.001 C 
BRANCH   8   9
ATOM      9  C   UNL     1      45.479  80.706  39.823  0.00  0.00    +0.012 C 
BRANCH   9  10
ATOM     10  C   UNL     1      44.398  79.690  39.555  0.00  0.00    +0.114 C 
BRANCH  10  11
ATOM     11  C   UNL     1      43.663  79.887  38.306  0.00  0.00    +0.365 C 
ATOM     12  O   UNL     1      42.830  78.979  37.961  0.00  0.00    -0.246 OA
ATOM     13  O   UNL     1      43.768  80.957  37.444  0.00  0.00    -0.246 OA
ENDBRANCH  10  11
ENDBRANCH   9  10
ENDBRANCH   8   9
ENDBRANCH   1   8
TORSDOF 8
