REMARK  Name = Azilsartan
REMARK  7 active torsions:
REMARK  status: ('A' for Active; 'I' for Inactive)
REMARK    1  A    between atoms: C_2  and  O_3
REMARK    2  A    between atoms: O_3  and  C_4
REMARK    3  A    between atoms: C_10  and  C_32
REMARK    4  A    between atoms: N_12  and  C_13
REMARK    5  A    between atoms: C_13  and  C_14
REMARK    6  A    between atoms: C_17  and  C_20
REMARK    7  A    between atoms: C_25  and  C_26
REMARK                            x       y       z     vdW  Elec       q    Type
REMARK                         _______ _______ _______ _____ _____    ______ ____
ROOT
ATOM      1  C   UNL     1      46.460  81.031  41.877  0.00  0.00    +0.001 A 
ATOM      2  C   UNL     1      47.459  80.150  41.550  0.00  0.00    -0.002 A 
ATOM      3  C   UNL     1      48.790  80.587  41.436  0.00  0.00    -0.000 A 
ATOM      4  C   UNL     1      49.160  81.898  41.642  0.00  0.00    +0.000 A 
ATOM      5  C   UNL     1      48.156  82.795  41.973  0.00  0.00    -0.000 A 
ATOM      6  C   UNL     1      46.862  82.354  42.081  0.00  0.00    -0.002 A 
ENDROOT
BRANCH   4   7
ATOM      7  C   UNL     1      50.551  82.291  41.540  0.00  0.00    +0.003 A 
ATOM      8  C   UNL     1      51.231  81.978  40.349  0.00  0.00    +0.000 A 
ATOM      9  C   UNL     1      52.534  82.350  40.131  0.00  0.00    +0.000 A 
ATOM     10  C   UNL     1      53.221  83.056  41.094  0.00  0.00    +0.000 A 
ATOM     11  C   UNL     1      52.580  83.369  42.257  0.00  0.00    +0.003 A 
ATOM     12  C   UNL     1      51.232  82.984  42.487  0.00  0.00    +0.039 A 
BRANCH  12  13
ATOM     13  C   UNL     1      50.651  83.296  43.773  0.00  0.00    +0.207 A 
ATOM     14  N   UNL     1      49.840  84.384  43.974  0.00  0.00    -0.052 NA
ATOM     15  O   UNL     1      49.426  84.410  45.201  0.00  0.00    -0.294 OA
ATOM     16  C   UNL     1      49.914  83.393  45.850  0.00  0.00    +0.463 A 
ATOM     17  O   UNL     1      49.741  83.069  47.074  0.00  0.00    -0.219 OA
ATOM     18  N   UNL     1      50.679  82.702  44.949  0.00  0.00    -0.151 NA
ENDBRANCH  12  13
ENDBRANCH   4   7
BRANCH   1  19
ATOM     19  C   UNL     1      45.042  80.612  42.024  0.00  0.00    +0.137 C 
BRANCH  19  28
ATOM     20  C   UNL     1      44.624  78.185  41.787  0.00  0.00    +0.301 A 
ATOM     21  N   UNL     1      44.206  77.308  40.897  0.00  0.00    -0.194 NA
ATOM     22  C   UNL     1      43.975  77.958  39.772  0.00  0.00    +0.102 A 
ATOM     23  C   UNL     1      43.526  77.462  38.560  0.00  0.00    +0.021 A 
ATOM     24  C   UNL     1      43.371  78.355  37.536  0.00  0.00    +0.002 A 
ATOM     25  C   UNL     1      43.650  79.677  37.701  0.00  0.00    +0.008 A 
ATOM     26  C   UNL     1      44.107  80.173  38.938  0.00  0.00    +0.097 A 
ATOM     27  C   UNL     1      44.272  79.304  39.993  0.00  0.00    +0.088 A 
ATOM     28  N   UNL     1      44.681  79.458  41.264  0.00  0.00    -0.277 N 
BRANCH  26  29
ATOM     29  C   UNL     1      44.417  81.558  39.004  0.00  0.00    +0.389 C 
ATOM     30  O   UNL     1      44.879  82.205  39.918  0.00  0.00    -0.240 OA
ATOM     31  O   UNL     1      44.171  82.359  37.856  0.00  0.00    -0.240 OA
ENDBRANCH  26  29
BRANCH  20  32
ATOM     32  O   UNL     1      44.960  77.844  43.087  0.00  0.00    -0.448 OA
BRANCH  32  34
ATOM     33  C   UNL     1      45.085  76.700  45.143  0.00  0.00    +0.051 C 
ATOM     34  C   UNL     1      44.511  76.706  43.742  0.00  0.00    +0.209 C 
ENDBRANCH  32  34
ENDBRANCH  20  32
ENDBRANCH  19  28
ENDBRANCH   1  19
TORSDOF 7
