REMARK  Name = Azlocillin
REMARK  5 active torsions:
REMARK  status: ('A' for Active; 'I' for Inactive)
REMARK    1  A    between atoms: CA_3  and  C_29
REMARK    2  A    between atoms: CA_7  and  N_10
REMARK    3  A    between atoms: C_11  and  CA_13
REMARK    4  A    between atoms: CA_13  and  C_14
REMARK    5  A    between atoms: CA_13  and  N_20
REMARK                            x       y       z     vdW  Elec       q    Type
REMARK                         _______ _______ _______ _____ _____    ______ ____
ROOT
ATOM      1  N   UNL     1      46.002  81.647  39.317  0.00  0.00    -0.193 NA
ATOM      2  C   UNL     1      45.480  80.388  38.967  0.00  0.00    +0.266 C 
ATOM      3  O   UNL     1      46.111  79.713  38.100  0.00  0.00    -0.271 OA
ENDROOT
BRANCH   1  10
ATOM      4  C   UNL     1      50.111  84.453  43.299  0.00  0.00    +0.013 C 
ATOM      5  C   UNL     1      49.035  83.523  42.909  0.00  0.00    +0.068 C 
ATOM      6  CA  UNL     1      49.496  82.273  42.236  0.00  0.00    +0.189 C 
ATOM      7  N   UNL     1      48.449  81.666  41.531  0.00  0.00    -0.259 N 
ATOM      8  C   UNL     1      47.275  82.531  41.263  0.00  0.00    +0.153 C 
ATOM      9  S   UNL     1      48.019  84.170  41.488  0.00  0.00    -0.118 S 
ATOM     10  CA  UNL     1      47.268  81.879  39.954  0.00  0.00    +0.200 C 
ATOM     11  C   UNL     1      47.695  80.703  40.839  0.00  0.00    +0.249 C 
ATOM     12  O   UNL     1      47.431  79.472  40.853  0.00  0.00    -0.273 OA
ATOM     13  C   UNL     1      48.105  83.264  44.084  0.00  0.00    +0.013 C 
BRANCH   6  14
ATOM     14  C   UNL     1      50.679  82.633  41.410  0.00  0.00    +0.383 C 
ATOM     15  O   UNL     1      50.633  83.177  40.284  0.00  0.00    -0.244 OA
ATOM     16  OXT UNL     1      51.980  82.362  41.887  0.00  0.00    -0.244 OA
ENDBRANCH   6  14
ENDBRANCH   1  10
BRANCH   2  17
ATOM     17  CA  UNL     1      44.218  79.850  39.599  0.00  0.00    +0.196 C 
BRANCH  17  18
ATOM     18  N   UNL     1      43.536  79.083  38.556  0.00  0.00    -0.176 NA
ATOM     19  C   UNL     1      42.157  78.752  38.633  0.00  0.00    +0.331 C 
ATOM     20  O   UNL     1      41.502  79.401  39.512  0.00  0.00    -0.250 OA
ATOM     21  N   UNL     1      41.554  77.783  37.800  0.00  0.00    -0.194 N 
ATOM     22  C   UNL     1      42.049  77.031  36.667  0.00  0.00    +0.128 C 
ATOM     23  C   UNL     1      40.855  77.103  35.731  0.00  0.00    +0.139 C 
ATOM     24  N   UNL     1      39.733  76.943  36.626  0.00  0.00    -0.186 NA
ATOM     25  C   UNL     1      40.185  77.320  37.924  0.00  0.00    +0.330 C 
ATOM     26  O   UNL     1      39.502  77.255  38.965  0.00  0.00    -0.250 OA
ENDBRANCH  17  18
BRANCH  17  27
ATOM     27  C   UNL     1      44.590  78.907  40.685  0.00  0.00    +0.006 A 
ATOM     28  C   UNL     1      44.532  77.533  40.494  0.00  0.00    -0.002 A 
ATOM     29  C   UNL     1      44.882  76.665  41.530  0.00  0.00    -0.000 A 
ATOM     30  C   UNL     1      45.294  77.120  42.767  0.00  0.00    -0.000 A 
ATOM     31  C   UNL     1      45.342  78.489  42.928  0.00  0.00    -0.000 A 
ATOM     32  C   UNL     1      45.001  79.363  41.922  0.00  0.00    -0.002 A 
ENDBRANCH  17  27
ENDBRANCH   2  17
TORSDOF 5
