REMARK  Name = Azosemide
REMARK  5 active torsions:
REMARK  status: ('A' for Active; 'I' for Inactive)
REMARK    1  A    between atoms: C_4  and  C_6
REMARK    2  A    between atoms: C_6  and  N_7
REMARK    3  A    between atoms: N_7  and  C_8
REMARK    4  A    between atoms: C_11  and  S_19
REMARK    5  A    between atoms: C_13  and  C_14
REMARK                            x       y       z     vdW  Elec       q    Type
REMARK                         _______ _______ _______ _____ _____    ______ ____
ROOT
ATOM      1  C   UNL     1      46.323  80.184  41.541  0.00  0.00    +0.070 A 
ATOM      2  C   UNL     1      46.223  79.084  42.408  0.00  0.00    +0.029 A 
ATOM      3  C   UNL     1      45.460  77.996  42.063  0.00  0.00    +0.078 A 
ATOM      4  C   UNL     1      44.798  77.998  40.858  0.00  0.00    +0.136 A 
ATOM      5  C   UNL     1      44.892  79.067  40.009  0.00  0.00    +0.025 A 
ATOM      6  C   UNL     1      45.665  80.186  40.346  0.00  0.00    +0.056 A 
ATOM      7 CL   UNL     1      45.329  76.611  43.147  0.00  0.00    -0.081 Cl
ENDROOT
BRANCH   6   8
ATOM      8  C   UNL     1      45.712  81.287  39.411  0.00  0.00    +0.209 A 
ATOM      9  N   UNL     1      46.542  82.358  39.523  0.00  0.00    -0.106 NA
ATOM     10  N   UNL     1      46.349  83.174  38.522  0.00  0.00    -0.021 NA
ATOM     11  N   UNL     1      45.406  82.641  37.769  0.00  0.00    -0.021 NA
ATOM     12  N   UNL     1      45.022  81.512  38.297  0.00  0.00    -0.106 NA
ENDBRANCH   6   8
BRANCH   4  13
ATOM     13  S   UNL     1      43.827  76.619  40.410  0.00  0.00    +0.094 S 
ATOM     14  O   UNL     1      44.678  75.387  40.347  0.00  0.00    -0.150 OA
ATOM     15  O   UNL     1      43.200  76.870  39.067  0.00  0.00    -0.150 OA
ATOM     16  N   UNL     1      42.598  76.325  41.601  0.00  0.00    +0.039 NA
ENDBRANCH   4  13
BRANCH   1  17
ATOM     17  N   UNL     1      47.165  81.256  41.940  0.00  0.00    -0.232 NA
BRANCH  17  18
ATOM     18  C   UNL     1      48.052  81.217  43.090  0.00  0.00    +0.145 C 
BRANCH  18  22
ATOM     19  C   UNL     1      49.181  84.787  43.247  0.00  0.00    +0.007 A 
ATOM     20  C   UNL     1      50.505  84.500  43.032  0.00  0.00    +0.035 A 
ATOM     21  S   UNL     1      50.499  82.803  42.881  0.00  0.00    -0.089 S 
ATOM     22  C   UNL     1      48.846  82.497  43.091  0.00  0.00    +0.029 A 
ATOM     23  C   UNL     1      48.327  83.757  43.278  0.00  0.00    +0.004 A 
ENDBRANCH  18  22
ENDBRANCH  17  18
ENDBRANCH   1  17
TORSDOF 5
