REMARK  Name = Aztreonam
REMARK  7 active torsions:
REMARK  status: ('A' for Active; 'I' for Inactive)
REMARK    1  A    between atoms: C_3  and  N_11
REMARK    2  A    between atoms: N_6  and  S_7
REMARK    3  A    between atoms: C_12  and  C_14
REMARK    4  A    between atoms: C_14  and  C_23
REMARK    5  A    between atoms: N_15  and  O_16
REMARK    6  A    between atoms: O_16  and  C_17
REMARK    7  A    between atoms: C_17  and  C_20
REMARK                            x       y       z     vdW  Elec       q    Type
REMARK                         _______ _______ _______ _____ _____    ______ ____
ROOT
ATOM      1  C   UNL     1      46.492  80.580  41.263  0.00  0.00    +0.192 C 
ATOM      2  N   UNL     1      47.532  80.825  41.977  0.00  0.00    -0.076 NA
ENDROOT
BRANCH   1   3
ATOM      3  C   UNL     1      46.312  81.316  40.015  0.00  0.00    +0.115 A 
ATOM      4  C   UNL     1      45.172  81.120  39.228  0.00  0.00    +0.059 A 
ATOM      5  S   UNL     1      45.452  82.187  37.929  0.00  0.00    -0.048 S 
ATOM      6  C   UNL     1      46.957  82.817  38.425  0.00  0.00    +0.201 A 
ATOM      7  N   UNL     1      47.159  82.177  39.553  0.00  0.00    -0.220 NA
ATOM      8  N   UNL     1      47.795  83.796  37.780  0.00  0.00    -0.100 NA
ENDBRANCH   1   3
BRANCH   1  10
ATOM      9  N   UNL     1      45.790  78.269  42.110  0.00  0.00    -0.191 NA
ATOM     10  C   UNL     1      45.548  79.599  41.710  0.00  0.00    +0.288 C 
ATOM     11  O   UNL     1      44.316  80.002  41.746  0.00  0.00    -0.267 OA
BRANCH   9  14
ATOM     12  C   UNL     1      43.981  75.755  43.861  0.00  0.00    +0.026 C 
ATOM     13  C   UNL     1      44.937  76.005  42.729  0.00  0.00    +0.130 C 
ATOM     14  C   UNL     1      44.675  77.330  42.057  0.00  0.00    +0.193 C 
ATOM     15  C   UNL     1      44.550  76.619  40.762  0.00  0.00    +0.267 C 
ATOM     16  O   UNL     1      44.459  76.951  39.556  0.00  0.00    -0.271 OA
ATOM     17  N   UNL     1      44.577  75.388  41.468  0.00  0.00    -0.136 N 
BRANCH  17  18
ATOM     18  S   UNL     1      44.294  73.754  41.021  0.00  0.00    +0.200 S 
ATOM     19  O   UNL     1      45.135  72.833  41.869  0.00  0.00    -0.124 OA
ATOM     20  O   UNL     1      44.688  73.507  39.593  0.00  0.00    -0.124 OA
ATOM     21  O   UNL     1      42.699  73.312  41.204  0.00  0.00    -0.029 OA
ENDBRANCH  17  18
ENDBRANCH   9  14
ENDBRANCH   1  10
BRANCH   2  22
ATOM     22  O   UNL     1      48.519  79.918  42.130  0.00  0.00    -0.374 OA
BRANCH  22  23
ATOM     23  C   UNL     1      49.732  80.084  42.780  0.00  0.00    +0.253 C 
ATOM     24  C   UNL     1      50.628  78.907  42.388  0.00  0.00    +0.058 C 
ATOM     25  C   UNL     1      49.623  80.140  44.280  0.00  0.00    +0.058 C 
BRANCH  23  26
ATOM     26  C   UNL     1      50.407  81.315  42.282  0.00  0.00    +0.403 C 
ATOM     27  O   UNL     1      51.480  81.748  42.781  0.00  0.00    -0.242 OA
ATOM     28  O   UNL     1      49.845  82.040  41.215  0.00  0.00    -0.242 OA
ENDBRANCH  23  26
ENDBRANCH  22  23
ENDBRANCH   2  22
TORSDOF 7
