REMARK  Name = B-Lactams
REMARK  1 active torsions:
REMARK  status: ('A' for Active; 'I' for Inactive)
REMARK    1  A    between atoms: C_6  and  C_7
REMARK                            x       y       z     vdW  Elec       q    Type
REMARK                         _______ _______ _______ _____ _____    ______ ____
ROOT
ATOM      1  C   UNL     1      47.438  80.991  40.948  0.00  0.00    +0.149 A 
ATOM      2  C   UNL     1      46.880  81.695  39.912  0.00  0.00    +0.080 A 
ATOM      3  C   UNL     1      45.729  81.264  39.273  0.00  0.00    +0.205 A 
ATOM      4  O   UNL     1      45.238  81.908  38.343  0.00  0.00    -0.286 OA
ATOM      5  C   UNL     1      45.142  80.097  39.699  0.00  0.00    +0.113 A 
ATOM      6  C   UNL     1      43.986  79.628  39.086  0.00  0.00    +0.205 A 
ATOM      7  C   UNL     1      43.447  78.455  39.558  0.00  0.00    +0.084 A 
ATOM      8  C   UNL     1      44.023  77.762  40.600  0.00  0.00    +0.202 A 
ATOM      9  C   UNL     1      45.157  78.251  41.178  0.00  0.00    +0.080 A 
ATOM     10  C   UNL     1      45.751  79.434  40.745  0.00  0.00    +0.155 A 
ATOM     11  O   UNL     1      46.851  79.882  41.327  0.00  0.00    -0.453 OA
ATOM     12  O   UNL     1      43.424  76.577  41.030  0.00  0.00    -0.286 OA
ATOM     13  O   UNL     1      43.434  80.351  38.041  0.00  0.00    -0.286 OA
ENDROOT
BRANCH   1  19
ATOM     14  C   UNL     1      48.934  81.095  42.903  0.00  0.00    +0.007 A 
ATOM     15  C   UNL     1      50.056  81.522  43.571  0.00  0.00    +0.045 A 
ATOM     16  C   UNL     1      50.962  82.365  42.964  0.00  0.00    +0.234 A 
ATOM     17  C   UNL     1      50.700  82.759  41.673  0.00  0.00    +0.234 A 
ATOM     18  C   UNL     1      49.560  82.325  40.996  0.00  0.00    +0.048 A 
ATOM     19  C   UNL     1      48.647  81.486  41.586  0.00  0.00    +0.038 A 
ATOM     20  O   UNL     1      51.601  83.605  41.052  0.00  0.00    -0.283 OA
ATOM     21  O   UNL     1      52.088  82.782  43.659  0.00  0.00    -0.283 OA
ENDBRANCH   1  19
TORSDOF 1
