REMARK  Name = Bacampicillin
REMARK  10 active torsions:
REMARK  status: ('A' for Active; 'I' for Inactive)
REMARK    1  A    between atoms: C_2  and  O_3
REMARK    2  A    between atoms: O_3  and  C_4
REMARK    3  A    between atoms: C_4  and  O_6
REMARK    4  A    between atoms: O_6  and  C_7
REMARK    5  A    between atoms: C_7  and  O_9
REMARK    6  A    between atoms: O_9  and  C_10
REMARK    7  A    between atoms: C_10  and  C_12
REMARK    8  A    between atoms: C_19  and  N_20
REMARK    9  A    between atoms: C_21  and  C_23
REMARK   10  A    between atoms: C_23  and  C_24
REMARK                            x       y       z     vdW  Elec       q    Type
REMARK                         _______ _______ _______ _____ _____    ______ ____
ROOT
ATOM      1  C   UNL     1      46.989  81.396  40.691  0.00  0.00    +0.185 C 
ATOM      2  C   UNL     1      47.695  81.702  39.362  0.00  0.00    +0.068 C 
ATOM      3  S   UNL     1      46.206  81.706  38.279  0.00  0.00    -0.118 S 
ATOM      4  C   UNL     1      45.057  80.908  39.469  0.00  0.00    +0.153 C 
ATOM      5  N   UNL     1      46.044  80.332  40.398  0.00  0.00    -0.260 N 
ATOM      6  C   UNL     1      45.308  79.111  40.313  0.00  0.00    +0.249 C 
ATOM      7  O   UNL     1      45.270  78.052  40.995  0.00  0.00    -0.273 OA
ATOM      8  C   UNL     1      44.585  79.567  39.092  0.00  0.00    +0.200 C 
ATOM      9  C   UNL     1      48.596  80.594  38.934  0.00  0.00    +0.013 C 
ATOM     10  C   UNL     1      48.326  83.050  39.387  0.00  0.00    +0.013 C 
ENDROOT
BRANCH   8  11
ATOM     11  N   UNL     1      43.179  79.314  39.094  0.00  0.00    -0.194 NA
ATOM     12  C   UNL     1      42.445  78.749  38.015  0.00  0.00    +0.264 C 
ATOM     13  O   UNL     1      43.005  78.624  36.917  0.00  0.00    -0.271 OA
BRANCH  12  14
ATOM     14  C   UNL     1      41.033  78.300  38.143  0.00  0.00    +0.191 C 
ATOM     15  N   UNL     1      40.597  77.912  36.813  0.00  0.00    -0.118 NA
BRANCH  14  16
ATOM     16  C   UNL     1      40.991  77.089  39.018  0.00  0.00    +0.004 A 
ATOM     17  C   UNL     1      42.166  76.632  39.550  0.00  0.00    -0.002 A 
ATOM     18  C   UNL     1      42.134  75.515  40.358  0.00  0.00    -0.000 A 
ATOM     19  C   UNL     1      40.976  74.832  40.659  0.00  0.00    -0.000 A 
ATOM     20  C   UNL     1      39.801  75.310  40.112  0.00  0.00    -0.000 A 
ATOM     21  C   UNL     1      39.821  76.427  39.302  0.00  0.00    -0.002 A 
ENDBRANCH  14  16
ENDBRANCH  12  14
ENDBRANCH   8  11
BRANCH   1  22
ATOM     22  C   UNL     1      47.947  81.016  41.743  0.00  0.00    +0.339 C 
ATOM     23  O   UNL     1      47.513  80.321  42.697  0.00  0.00    -0.248 OA
BRANCH  22  24
ATOM     24  O   UNL     1      49.260  81.376  41.733  0.00  0.00    -0.412 OA
BRANCH  24  25
ATOM     25  C   UNL     1      50.029  81.259  42.914  0.00  0.00    +0.348 C 
ATOM     26  C   UNL     1      51.132  80.231  42.721  0.00  0.00    +0.100 C 
BRANCH  25  27
ATOM     27  O   UNL     1      50.540  82.498  43.333  0.00  0.00    -0.382 OA
BRANCH  27  28
ATOM     28  C   UNL     1      49.664  83.541  43.568  0.00  0.00    +0.514 C 
ATOM     29  O   UNL     1      48.424  83.383  43.474  0.00  0.00    -0.203 OA
BRANCH  28  30
ATOM     30  O   UNL     1      50.141  84.803  43.917  0.00  0.00    -0.418 OA
BRANCH  30  32
ATOM     31  C   UNL     1      48.230  86.304  43.779  0.00  0.00    +0.051 C 
ATOM     32  C   UNL     1      49.620  85.977  43.322  0.00  0.00    +0.212 C 
ENDBRANCH  30  32
ENDBRANCH  28  30
ENDBRANCH  27  28
ENDBRANCH  25  27
ENDBRANCH  24  25
ENDBRANCH  22  24
ENDBRANCH   1  22
TORSDOF 10
