REMARK  Name = Balofloxacin
REMARK  5 active torsions:
REMARK  status: ('A' for Active; 'I' for Inactive)
REMARK    1  A    between atoms: N_2  and  C_3
REMARK    2  A    between atoms: N_7  and  C_9
REMARK    3  A    between atoms: C_14  and  O_15
REMARK    4  A    between atoms: N_17  and  C_25
REMARK    5  A    between atoms: C_19  and  C_22
REMARK                            x       y       z     vdW  Elec       q    Type
REMARK                         _______ _______ _______ _____ _____    ______ ____
ROOT
ATOM      1  C   UNL     1      42.693  77.718  39.259  0.00  0.00    +0.112 A 
ATOM      2  C   UNL     1      42.530  78.676  38.261  0.00  0.00    +0.157 A 
ATOM      3  C   UNL     1      43.373  79.751  38.135  0.00  0.00    +0.036 A 
ATOM      4  C   UNL     1      44.422  79.942  38.978  0.00  0.00    +0.060 A 
ATOM      5  C   UNL     1      44.641  79.009  40.008  0.00  0.00    +0.099 A 
ATOM      6  C   UNL     1      43.774  77.951  40.107  0.00  0.00    +0.170 A 
ATOM      7  N   UNL     1      45.704  79.212  40.832  0.00  0.00    -0.325 N 
ATOM      8  C   UNL     1      46.510  80.280  40.668  0.00  0.00    +0.086 A 
ATOM      9  C   UNL     1      46.334  81.221  39.682  0.00  0.00    +0.136 A 
ATOM     10  C   UNL     1      45.269  81.018  38.845  0.00  0.00    +0.205 A 
ATOM     11  O   UNL     1      45.054  81.845  37.917  0.00  0.00    -0.286 OA
ATOM     12  F   UNL     1      41.521  78.541  37.373  0.00  0.00    -0.203 F 
ENDROOT
BRANCH   1  17
ATOM     13  C   UNL     1      40.706  74.694  38.283  0.00  0.00    +0.093 C 
ATOM     14  C   UNL     1      40.426  73.997  39.556  0.00  0.00    +0.021 C 
ATOM     15  C   UNL     1      41.095  74.748  40.672  0.00  0.00    +0.023 C 
ATOM     16  C   UNL     1      40.878  76.244  40.327  0.00  0.00    +0.091 C 
ATOM     17  N   UNL     1      41.836  76.615  39.368  0.00  0.00    -0.302 N 
ATOM     18  C   UNL     1      41.869  75.636  38.259  0.00  0.00    +0.108 C 
BRANCH  13  20
ATOM     19  C   UNL     1      39.598  73.894  36.396  0.00  0.00    +0.107 C 
ATOM     20  N   UNL     1      40.775  73.705  37.224  0.00  0.00    -0.216 NA
ENDBRANCH  13  20
ENDBRANCH   1  17
BRANCH   9  21
ATOM     21  C   UNL     1      47.237  82.369  39.543  0.00  0.00    +0.392 C 
ATOM     22  O   UNL     1      47.191  83.162  38.575  0.00  0.00    -0.240 OA
ATOM     23  O   UNL     1      48.181  82.578  40.529  0.00  0.00    -0.240 OA
ENDBRANCH   9  21
BRANCH   7  24
ATOM     24  C   UNL     1      46.000  78.201  41.835  0.00  0.00    +0.086 C 
ATOM     25  C   UNL     1      47.111  78.425  42.758  0.00  0.00    +0.024 C 
ATOM     26  C   UNL     1      47.385  77.492  41.671  0.00  0.00    +0.024 C 
ENDBRANCH   7  24
BRANCH   6  27
ATOM     27  O   UNL     1      43.935  77.032  41.123  0.00  0.00    -0.469 OA
ATOM     28  C   UNL     1      44.898  75.974  40.866  0.00  0.00    +0.253 C 
ENDBRANCH   6  27
TORSDOF 5
