REMARK  Name = Baloxavir_marboxil
REMARK  6 active torsions:
REMARK  status: ('A' for Active; 'I' for Inactive)
REMARK    1  A    between atoms: O_2  and  C_3
REMARK    2  A    between atoms: C_3  and  O_5
REMARK    3  A    between atoms: O_5  and  C_6
REMARK    4  A    between atoms: C_6  and  O_7
REMARK    5  A    between atoms: O_7  and  C_8
REMARK    6  A    between atoms: N_18  and  C_24
REMARK                            x       y       z     vdW  Elec       q    Type
REMARK                         _______ _______ _______ _____ _____    ______ ____
ROOT
ATOM      1  C   UNL     1      44.325  80.497  39.122  0.00  0.00    +0.203 A 
ATOM      2  C   UNL     1      45.012  79.922  40.176  0.00  0.00    +0.169 A 
ATOM      3  C   UNL     1      44.301  78.964  41.009  0.00  0.00    +0.271 C 
ATOM      4  O   UNL     1      43.065  78.665  40.822  0.00  0.00    -0.268 OA
ATOM      5  N   UNL     1      44.985  78.370  42.027  0.00  0.00    -0.254 N 
ATOM      6  C   UNL     1      44.335  77.490  42.966  0.00  0.00    +0.127 C 
ATOM      7  C   UNL     1      45.048  76.136  42.702  0.00  0.00    +0.164 C 
ATOM      8  O   UNL     1      46.406  76.249  42.651  0.00  0.00    -0.348 OA
ATOM      9  C   UNL     1      46.853  77.144  41.639  0.00  0.00    +0.184 C 
ATOM     10  C   UNL     1      46.422  78.509  42.178  0.00  0.00    +0.198 C 
ATOM     11  N   UNL     1      47.015  79.659  41.582  0.00  0.00    -0.222 N 
ATOM     12  N   UNL     1      46.329  80.202  40.446  0.00  0.00    -0.249 N 
ATOM     13  C   UNL     1      46.969  81.067  39.651  0.00  0.00    +0.100 A 
ATOM     14  C   UNL     1      46.308  81.671  38.574  0.00  0.00    +0.066 A 
ATOM     15  C   UNL     1      44.996  81.402  38.294  0.00  0.00    +0.233 A 
ATOM     16  O   UNL     1      44.368  81.922  37.341  0.00  0.00    -0.283 OA
ENDROOT
BRANCH  11  17
ATOM     17  C   UNL     1      48.130  80.326  42.075  0.00  0.00    +0.136 C 
ATOM     18  C   UNL     1      48.215  81.798  42.222  0.00  0.00    +0.001 A 
ATOM     19  C   UNL     1      48.833  82.412  43.335  0.00  0.00    +0.017 A 
ATOM     20  C   UNL     1      49.400  81.880  44.587  0.00  0.00    +0.090 C 
ATOM     21  S   UNL     1      50.418  80.389  44.430  0.00  0.00    -0.109 S 
ATOM     22  C   UNL     1      50.561  79.950  42.668  0.00  0.00    +0.023 A 
ATOM     23  C   UNL     1      51.827  79.665  42.282  0.00  0.00    +0.006 A 
ATOM     24  C   UNL     1      52.143  79.422  40.959  0.00  0.00    +0.000 A 
ATOM     25  C   UNL     1      51.141  79.476  40.034  0.00  0.00    -0.000 A 
ATOM     26  C   UNL     1      49.846  79.768  40.434  0.00  0.00    -0.002 A 
ATOM     27  C   UNL     1      49.526  80.001  41.717  0.00  0.00    +0.007 A 
ATOM     28  C   UNL     1      48.907  83.809  43.324  0.00  0.00    +0.164 A 
ATOM     29  C   UNL     1      48.427  84.584  42.326  0.00  0.00    +0.167 A 
ATOM     30  C   UNL     1      47.833  83.958  41.265  0.00  0.00    +0.032 A 
ATOM     31  C   UNL     1      47.730  82.562  41.219  0.00  0.00    -0.000 A 
ATOM     32  F   UNL     1      48.556  85.929  42.423  0.00  0.00    -0.202 F 
ATOM     33  F   UNL     1      49.508  84.408  44.402  0.00  0.00    -0.202 F 
ENDBRANCH  11  17
BRANCH   1  34
ATOM     34  O   UNL     1      43.005  80.181  38.883  0.00  0.00    -0.433 OA
BRANCH  34  35
ATOM     35  C   UNL     1      42.580  79.374  37.803  0.00  0.00    +0.434 C 
BRANCH  35  36
ATOM     36  O   UNL     1      41.664  78.362  38.283  0.00  0.00    -0.376 OA
BRANCH  36  37
ATOM     37  C   UNL     1      41.096  77.461  37.401  0.00  0.00    +0.515 C 
ATOM     38  O   UNL     1      39.953  77.735  36.953  0.00  0.00    -0.203 OA
BRANCH  37  40
ATOM     39  C   UNL     1      40.967  75.068  37.086  0.00  0.00    +0.259 C 
ATOM     40  O   UNL     1      41.701  76.293  36.988  0.00  0.00    -0.414 OA
ENDBRANCH  37  40
ENDBRANCH  36  37
ENDBRANCH  35  36
ENDBRANCH  34  35
ENDBRANCH   1  34
TORSDOF 6
