REMARK  Name = Balsalazide
REMARK  7 active torsions:
REMARK  status: ('A' for Active; 'I' for Inactive)
REMARK    1  A    between atoms: C_3  and  N_15
REMARK    2  A    between atoms: C_6  and  C_7
REMARK    3  A    between atoms: N_9  and  C_10
REMARK    4  A    between atoms: C_10  and  C_11
REMARK    5  A    between atoms: C_11  and  C_12
REMARK    6  A    between atoms: N_16  and  C_17
REMARK    7  A    between atoms: C_19  and  C_24
REMARK                            x       y       z     vdW  Elec       q    Type
REMARK                         _______ _______ _______ _____ _____    ______ ____
ROOT
ATOM      1  C   UNL     1      44.569  80.201  39.098  0.00  0.00    +0.006 A 
ATOM      2  C   UNL     1      45.651  80.750  39.772  0.00  0.00    +0.021 A 
ATOM      3  C   UNL     1      46.218  80.112  40.849  0.00  0.00    +0.103 A 
ATOM      4  C   UNL     1      45.683  78.909  41.244  0.00  0.00    +0.021 A 
ATOM      5  C   UNL     1      44.591  78.359  40.561  0.00  0.00    +0.006 A 
ATOM      6  C   UNL     1      44.017  78.985  39.487  0.00  0.00    +0.055 A 
ENDROOT
BRANCH   6   7
ATOM      7  C   UNL     1      42.854  78.429  38.748  0.00  0.00    +0.265 C 
ATOM      8  O   UNL     1      42.343  79.188  37.888  0.00  0.00    -0.268 OA
ATOM      9  N   UNL     1      42.335  77.162  38.963  0.00  0.00    -0.201 NA
BRANCH   9  10
ATOM     10  C   UNL     1      41.139  76.656  38.377  0.00  0.00    +0.127 C 
BRANCH  10  11
ATOM     11  C   UNL     1      41.177  76.042  37.041  0.00  0.00    +0.137 C 
BRANCH  11  12
ATOM     12  C   UNL     1      39.913  75.695  36.405  0.00  0.00    +0.367 C 
ATOM     13  O   UNL     1      39.846  75.290  35.213  0.00  0.00    -0.246 OA
ATOM     14  O   UNL     1      38.702  75.796  37.104  0.00  0.00    -0.246 OA
ENDBRANCH  11  12
ENDBRANCH  10  11
ENDBRANCH   9  10
ENDBRANCH   6   7
BRANCH   3  15
ATOM     15  N   UNL     1      47.336  80.698  41.553  0.00  0.00    -0.148 NA
ATOM     16  N   UNL     1      47.892  81.697  40.956  0.00  0.00    -0.148 NA
BRANCH  16  17
ATOM     17  C   UNL     1      48.995  82.303  41.588  0.00  0.00    +0.103 A 
ATOM     18  C   UNL     1      48.769  83.107  42.683  0.00  0.00    +0.031 A 
ATOM     19  C   UNL     1      49.805  83.731  43.366  0.00  0.00    +0.120 A 
ATOM     20  C   UNL     1      51.081  83.510  42.897  0.00  0.00    +0.202 A 
ATOM     21  C   UNL     1      51.319  82.694  41.783  0.00  0.00    +0.044 A 
ATOM     22  C   UNL     1      50.262  82.097  41.140  0.00  0.00    +0.024 A 
ATOM     23  O   UNL     1      52.145  84.113  43.547  0.00  0.00    -0.286 OA
BRANCH  19  24
ATOM     24  C   UNL     1      49.566  84.577  44.520  0.00  0.00    +0.391 C 
ATOM     25  O   UNL     1      50.522  84.883  45.261  0.00  0.00    -0.240 OA
ATOM     26  O   UNL     1      48.302  85.045  44.809  0.00  0.00    -0.240 OA
ENDBRANCH  19  24
ENDBRANCH  16  17
ENDBRANCH   3  15
TORSDOF 7
