REMARK  Name = Bambuterol
REMARK  8 active torsions:
REMARK  status: ('A' for Active; 'I' for Inactive)
REMARK    1  A    between atoms: C_2  and  N_5
REMARK    2  A    between atoms: N_5  and  C_6
REMARK    3  A    between atoms: C_6  and  C_7
REMARK    4  A    between atoms: C_7  and  C_8
REMARK    5  A    between atoms: C_10  and  O_20
REMARK    6  A    between atoms: C_12  and  O_14
REMARK    7  A    between atoms: O_14  and  C_15
REMARK    8  A    between atoms: O_20  and  C_21
REMARK                            x       y       z     vdW  Elec       q    Type
REMARK                         _______ _______ _______ _____ _____    ______ ____
ROOT
ATOM      1  C   UNL     1      44.409  80.170  39.551  0.00  0.00    +0.015 A 
ATOM      2  C   UNL     1      43.552  79.721  38.589  0.00  0.00    +0.036 A 
ATOM      3  C   UNL     1      42.896  78.505  38.758  0.00  0.00    +0.153 A 
ATOM      4  C   UNL     1      43.114  77.773  39.884  0.00  0.00    +0.075 A 
ATOM      5  C   UNL     1      43.974  78.209  40.864  0.00  0.00    +0.153 A 
ATOM      6  C   UNL     1      44.616  79.413  40.682  0.00  0.00    +0.036 A 
ENDROOT
BRANCH   1   7
ATOM      7  C   UNL     1      45.137  81.464  39.431  0.00  0.00    +0.192 C 
ATOM      8  O   UNL     1      45.539  81.551  38.092  0.00  0.00    -0.217 OA
BRANCH   7   9
ATOM      9  C   UNL     1      46.345  81.339  40.326  0.00  0.00    +0.126 C 
BRANCH   9  10
ATOM     10  N   UNL     1      47.286  82.382  40.269  0.00  0.00    -0.218 NA
BRANCH  10  12
ATOM     11  C   UNL     1      49.211  81.056  41.100  0.00  0.00    +0.017 C 
ATOM     12  C   UNL     1      48.450  82.333  41.062  0.00  0.00    +0.060 C 
ATOM     13  C   UNL     1      47.995  82.620  42.507  0.00  0.00    +0.017 C 
ATOM     14  C   UNL     1      49.443  83.440  40.752  0.00  0.00    +0.017 C 
ENDBRANCH  10  12
ENDBRANCH   9  10
ENDBRANCH   7   9
ENDBRANCH   1   7
BRANCH   5  15
ATOM     15  O   UNL     1      44.204  77.484  42.002  0.00  0.00    -0.410 OA
BRANCH  15  16
ATOM     16  C   UNL     1      44.758  76.206  41.864  0.00  0.00    +0.410 C 
ATOM     17  O   UNL     1      45.279  75.894  40.750  0.00  0.00    -0.226 OA
ATOM     18  N   UNL     1      44.734  75.288  42.948  0.00  0.00    -0.242 N 
ATOM     19  C   UNL     1      44.153  75.698  44.204  0.00  0.00    +0.118 C 
ATOM     20  C   UNL     1      45.276  73.960  42.830  0.00  0.00    +0.118 C 
ENDBRANCH  15  16
ENDBRANCH   5  15
BRANCH   3  21
ATOM     21  O   UNL     1      42.029  78.089  37.746  0.00  0.00    -0.410 OA
BRANCH  21  22
ATOM     22  C   UNL     1      40.674  78.046  38.003  0.00  0.00    +0.410 C 
ATOM     23  O   UNL     1      40.263  78.593  39.066  0.00  0.00    -0.226 OA
ATOM     24  N   UNL     1      39.733  77.413  37.118  0.00  0.00    -0.242 N 
ATOM     25  C   UNL     1      38.326  77.451  37.462  0.00  0.00    +0.118 C 
ATOM     26  C   UNL     1      40.208  76.762  35.926  0.00  0.00    +0.118 C 
ENDBRANCH  21  22
ENDBRANCH   3  21
TORSDOF 8
