REMARK  Name = Bamifylline
REMARK  8 active torsions:
REMARK  status: ('A' for Active; 'I' for Inactive)
REMARK    1  A    between atoms: C_2  and  N_3
REMARK    2  A    between atoms: N_3  and  C_4
REMARK    3  A    between atoms: N_3  and  C_26
REMARK    4  A    between atoms: C_4  and  C_5
REMARK    5  A    between atoms: C_5  and  N_6
REMARK    6  A    between atoms: C_7  and  C_19
REMARK    7  A    between atoms: C_19  and  C_20
REMARK    8  A    between atoms: C_26  and  C_27
REMARK                            x       y       z     vdW  Elec       q    Type
REMARK                         _______ _______ _______ _____ _____    ______ ____
ROOT
ATOM      1  N   UNL     1      46.846  79.840  41.636  0.00  0.00    -0.308 N 
ATOM      2  C   UNL     1      47.684  80.852  41.962  0.00  0.00    +0.127 A 
ATOM      3  N   UNL     1      47.482  81.830  41.076  0.00  0.00    -0.213 NA
ATOM      4  C   UNL     1      46.544  81.470  40.204  0.00  0.00    +0.169 A 
ATOM      5  C   UNL     1      46.115  80.208  40.530  0.00  0.00    +0.152 A 
ATOM      6  C   UNL     1      45.134  79.583  39.781  0.00  0.00    +0.283 A 
ATOM      7  O   UNL     1      44.778  78.439  40.114  0.00  0.00    -0.265 OA
ATOM      8  N   UNL     1      44.602  80.236  38.722  0.00  0.00    -0.245 N 
ATOM      9  C   UNL     1      45.028  81.466  38.414  0.00  0.00    +0.335 A 
ATOM     10  O   UNL     1      44.553  82.102  37.432  0.00  0.00    -0.246 OA
ATOM     11  N   UNL     1      45.975  82.076  39.131  0.00  0.00    -0.263 N 
ATOM     12  C   UNL     1      46.449  83.426  38.798  0.00  0.00    +0.137 C 
ATOM     13  C   UNL     1      43.569  79.574  37.942  0.00  0.00    +0.138 C 
ENDROOT
BRANCH   1  14
ATOM     14  C   UNL     1      46.684  78.615  42.311  0.00  0.00    +0.125 C 
BRANCH  14  15
ATOM     15  C   UNL     1      45.388  77.927  42.407  0.00  0.00    +0.097 C 
BRANCH  15  16
ATOM     16  N   UNL     1      45.335  76.593  42.915  0.00  0.00    -0.269 NA
BRANCH  16  18
ATOM     17  C   UNL     1      44.552  75.313  44.844  0.00  0.00    +0.019 C 
ATOM     18  C   UNL     1      44.366  76.558  44.018  0.00  0.00    +0.072 C 
ENDBRANCH  16  18
BRANCH  16  19
ATOM     19  C   UNL     1      44.791  75.717  41.902  0.00  0.00    +0.108 C 
BRANCH  19  20
ATOM     20  C   UNL     1      45.816  75.269  40.912  0.00  0.00    +0.199 C 
ATOM     21  O   UNL     1      45.138  74.626  39.853  0.00  0.00    -0.219 OA
ENDBRANCH  19  20
ENDBRANCH  16  19
ENDBRANCH  15  16
ENDBRANCH  14  15
ENDBRANCH   1  14
BRANCH   2  22
ATOM     22  C   UNL     1      48.628  80.852  43.116  0.00  0.00    +0.090 C 
BRANCH  22  23
ATOM     23  C   UNL     1      49.304  82.155  43.301  0.00  0.00    -0.015 A 
ATOM     24  C   UNL     1      50.695  82.218  43.149  0.00  0.00    -0.004 A 
ATOM     25  C   UNL     1      51.379  83.403  43.308  0.00  0.00    -0.000 A 
ATOM     26  C   UNL     1      50.710  84.582  43.626  0.00  0.00    -0.000 A 
ATOM     27  C   UNL     1      49.340  84.515  43.774  0.00  0.00    -0.000 A 
ATOM     28  C   UNL     1      48.639  83.314  43.614  0.00  0.00    -0.004 A 
ENDBRANCH  22  23
ENDBRANCH   2  22
TORSDOF 8
