REMARK  Name = Barbital
REMARK  2 active torsions:
REMARK  status: ('A' for Active; 'I' for Inactive)
REMARK    1  A    between atoms: C_2  and  C_3
REMARK    2  A    between atoms: C_3  and  C_12
REMARK                            x       y       z     vdW  Elec       q    Type
REMARK                         _______ _______ _______ _____ _____    ______ ____
ROOT
ATOM      1  C   UNL     1      47.764  81.920  41.516  0.00  0.00    +0.141 C 
ATOM      2  C   UNL     1      47.957  82.945  40.493  0.00  0.00    +0.257 C 
ATOM      3  O   UNL     1      48.783  83.875  40.651  0.00  0.00    -0.272 OA
ATOM      4  N   UNL     1      47.226  82.962  39.254  0.00  0.00    -0.125 NA
ATOM      5  C   UNL     1      46.129  82.103  39.093  0.00  0.00    +0.352 C 
ATOM      6  O   UNL     1      45.462  82.097  38.005  0.00  0.00    -0.248 OA
ATOM      7  N   UNL     1      45.749  81.239  40.129  0.00  0.00    -0.125 NA
ATOM      8  C   UNL     1      46.469  81.222  41.350  0.00  0.00    +0.257 C 
ATOM      9  O   UNL     1      46.002  80.598  42.331  0.00  0.00    -0.272 OA
ENDROOT
BRANCH   1  11
ATOM     10  C   UNL     1      50.198  81.456  41.150  0.00  0.00    +0.001 C 
ATOM     11  C   UNL     1      48.853  80.847  41.466  0.00  0.00    +0.018 C 
ENDBRANCH   1  11
BRANCH   1  12
ATOM     12  C   UNL     1      47.749  82.566  42.898  0.00  0.00    +0.018 C 
ATOM     13  C   UNL     1      46.838  83.771  42.916  0.00  0.00    +0.001 C 
ENDBRANCH   1  12
TORSDOF 2
