REMARK  Name = Baricitinib
REMARK  6 active torsions:
REMARK  status: ('A' for Active; 'I' for Inactive)
REMARK    1  A    between atoms: C_2  and  S_3
REMARK    2  A    between atoms: S_3  and  N_6
REMARK    3  A    between atoms: C_8  and  C_10
REMARK    4  A    between atoms: C_8  and  N_13
REMARK    5  A    between atoms: C_10  and  C_11
REMARK    6  A    between atoms: C_15  and  C_18
REMARK                            x       y       z     vdW  Elec       q    Type
REMARK                         _______ _______ _______ _____ _____    ______ ____
ROOT
ATOM      1  N   UNL     1      49.204  82.076  42.319  0.00  0.00    -0.249 N 
ATOM      2  C   UNL     1      48.436  82.276  41.280  0.00  0.00    +0.098 A 
ATOM      3  C   UNL     1      47.507  81.252  41.126  0.00  0.00    +0.057 A 
ATOM      4  C   UNL     1      47.789  80.402  42.168  0.00  0.00    +0.123 A 
ATOM      5  N   UNL     1      48.822  80.924  42.875  0.00  0.00    -0.168 NA
ENDROOT
BRANCH   3   6
ATOM      6  C   UNL     1      46.465  81.219  40.120  0.00  0.00    +0.089 A 
ATOM      7  C   UNL     1      45.493  80.236  40.052  0.00  0.00    +0.055 A 
ATOM      8  C   UNL     1      45.286  79.071  40.771  0.00  0.00    +0.025 A 
ATOM      9  C   UNL     1      44.155  78.439  40.195  0.00  0.00    +0.101 A 
ATOM     10  N   UNL     1      43.788  79.245  39.210  0.00  0.00    -0.225 NA
ATOM     11  C   UNL     1      44.537  80.358  39.052  0.00  0.00    +0.166 A 
ATOM     12  N   UNL     1      44.496  81.346  38.165  0.00  0.00    -0.205 NA
ATOM     13  C   UNL     1      45.504  82.352  38.246  0.00  0.00    +0.200 A 
ATOM     14  N   UNL     1      46.343  82.163  39.196  0.00  0.00    -0.224 NA
ENDBRANCH   3   6
BRANCH   1  17
ATOM     15  N   UNL     1      52.137  83.090  41.985  0.00  0.00    -0.155 NA
ATOM     16  C   UNL     1      51.534  82.227  42.994  0.00  0.00    +0.120 C 
ATOM     17  C   UNL     1      50.229  83.014  42.815  0.00  0.00    +0.133 C 
ATOM     18  C   UNL     1      50.916  83.901  41.876  0.00  0.00    +0.120 C 
BRANCH  15  19
ATOM     19  S   UNL     1      53.489  83.978  42.623  0.00  0.00    +0.044 S 
ATOM     20  O   UNL     1      54.576  83.073  43.097  0.00  0.00    -0.157 OA
ATOM     21  O   UNL     1      53.035  84.882  43.724  0.00  0.00    -0.157 OA
BRANCH  19  23
ATOM     22  C   UNL     1      54.121  84.273  40.024  0.00  0.00    +0.029 C 
ATOM     23  C   UNL     1      54.209  84.997  41.343  0.00  0.00    +0.169 C 
ENDBRANCH  19  23
ENDBRANCH  15  19
BRANCH  17  24
ATOM     24  C   UNL     1      49.762  83.632  44.152  0.00  0.00    +0.131 C 
BRANCH  24  25
ATOM     25  C   UNL     1      48.695  84.585  43.923  0.00  0.00    +0.075 C 
ATOM     26  N   UNL     1      47.807  85.394  43.732  0.00  0.00    -0.196 NA
ENDBRANCH  24  25
ENDBRANCH  17  24
ENDBRANCH   1  17
TORSDOF 6
