REMARK  Name = BAY_80-6946
REMARK  8 active torsions:
REMARK  status: ('A' for Active; 'I' for Inactive)
REMARK    1  A    between atoms: O_2  and  C_3
REMARK    2  A    between atoms: C_4  and  O_26
REMARK    3  A    between atoms: N_14  and  C_15
REMARK    4  A    between atoms: C_15  and  C_17
REMARK    5  A    between atoms: O_26  and  C_27
REMARK    6  A    between atoms: C_27  and  C_28
REMARK    7  A    between atoms: C_28  and  C_29
REMARK    8  A    between atoms: C_29  and  N_30
REMARK                            x       y       z     vdW  Elec       q    Type
REMARK                         _______ _______ _______ _____ _____    ______ ____
ROOT
ATOM      1  C   UNL     1      43.852  78.073  40.151  0.00  0.00    +0.190 A 
ATOM      2  C   UNL     1      42.752  77.926  39.321  0.00  0.00    +0.174 A 
ATOM      3  C   UNL     1      42.558  78.934  38.389  0.00  0.00    +0.040 A 
ATOM      4  C   UNL     1      43.435  80.023  38.306  0.00  0.00    +0.008 A 
ATOM      5  C   UNL     1      44.522  80.153  39.134  0.00  0.00    +0.052 A 
ATOM      6  C   UNL     1      45.374  81.234  39.038  0.00  0.00    +0.132 A 
ATOM      7  N   UNL     1      45.377  82.374  38.163  0.00  0.00    -0.219 NA
ATOM      8  C   UNL     1      46.176  83.397  38.804  0.00  0.00    +0.138 C 
ATOM      9  C   UNL     1      47.169  82.540  39.591  0.00  0.00    +0.133 C 
ATOM     10  N   UNL     1      46.415  81.315  39.866  0.00  0.00    -0.285 N 
ATOM     11  C   UNL     1      46.639  80.332  40.805  0.00  0.00    +0.225 A 
ATOM     12  N   UNL     1      47.651  80.480  41.550  0.00  0.00    -0.141 NA
ATOM     13  N   UNL     1      45.785  79.278  40.878  0.00  0.00    -0.210 NA
ATOM     14  C   UNL     1      44.706  79.144  40.061  0.00  0.00    +0.124 A 
ENDROOT
BRANCH   1  16
ATOM     15  C   UNL     1      45.409  76.559  41.097  0.00  0.00    +0.253 C 
ATOM     16  O   UNL     1      44.054  77.049  41.107  0.00  0.00    -0.467 OA
ENDBRANCH   1  16
BRANCH  12  17
ATOM     17  C   UNL     1      47.859  81.083  42.765  0.00  0.00    +0.274 C 
ATOM     18  O   UNL     1      46.943  81.442  43.559  0.00  0.00    -0.268 OA
BRANCH  17  19
ATOM     19  C   UNL     1      49.249  81.341  43.197  0.00  0.00    +0.094 A 
ATOM     20  C   UNL     1      50.294  81.088  42.337  0.00  0.00    +0.108 A 
ATOM     21  N   UNL     1      51.555  81.333  42.722  0.00  0.00    -0.209 NA
ATOM     22  C   UNL     1      51.870  81.822  43.923  0.00  0.00    +0.257 A 
ATOM     23  N   UNL     1      50.856  82.079  44.790  0.00  0.00    -0.209 NA
ATOM     24  C   UNL     1      49.574  81.844  44.434  0.00  0.00    +0.108 A 
ATOM     25  N   UNL     1      53.226  82.074  44.304  0.00  0.00    -0.086 NA
ENDBRANCH  17  19
ENDBRANCH  12  17
BRANCH   2  26
ATOM     26  O   UNL     1      41.916  76.825  39.438  0.00  0.00    -0.472 OA
BRANCH  26  27
ATOM     27  C   UNL     1      40.779  76.601  38.676  0.00  0.00    +0.207 C 
BRANCH  27  28
ATOM     28  C   UNL     1      41.059  75.725  37.495  0.00  0.00    +0.065 C 
BRANCH  28  29
ATOM     29  C   UNL     1      40.262  74.446  37.541  0.00  0.00    +0.076 C 
BRANCH  29  30
ATOM     30  N   UNL     1      39.072  74.367  36.831  0.00  0.00    -0.268 NA
ATOM     31  C   UNL     1      38.124  73.350  37.165  0.00  0.00    +0.105 C 
ATOM     32  C   UNL     1      38.364  72.146  36.239  0.00  0.00    +0.159 C 
ATOM     33  O   UNL     1      38.009  72.592  34.963  0.00  0.00    -0.351 OA
ATOM     34  C   UNL     1      39.057  73.447  34.559  0.00  0.00    +0.159 C 
ATOM     35  C   UNL     1      39.134  74.673  35.437  0.00  0.00    +0.105 C 
ENDBRANCH  29  30
ENDBRANCH  28  29
ENDBRANCH  27  28
ENDBRANCH  26  27
ENDBRANCH   2  26
TORSDOF 8
