REMARK  Name = Bazedoxifene
REMARK  7 active torsions:
REMARK  status: ('A' for Active; 'I' for Inactive)
REMARK    1  A    between atoms: C_3  and  C_29
REMARK    2  A    between atoms: N_4  and  C_12
REMARK    3  A    between atoms: C_12  and  C_13
REMARK    4  A    between atoms: C_16  and  O_19
REMARK    5  A    between atoms: O_19  and  C_20
REMARK    6  A    between atoms: C_20  and  C_21
REMARK    7  A    between atoms: C_21  and  N_22
REMARK                            x       y       z     vdW  Elec       q    Type
REMARK                         _______ _______ _______ _____ _____    ______ ____
ROOT
ATOM      1  C   UNL     1      48.547  83.090  40.415  0.00  0.00    +0.033 C 
ATOM      2  C   UNL     1      47.671  81.948  40.722  0.00  0.00    -0.005 A 
ATOM      3  C   UNL     1      47.877  80.971  41.718  0.00  0.00    +0.056 A 
ATOM      4  N   UNL     1      46.840  80.158  41.632  0.00  0.00    -0.323 N 
ATOM      5  C   UNL     1      45.962  80.525  40.645  0.00  0.00    +0.060 A 
ATOM      6  C   UNL     1      46.495  81.656  40.078  0.00  0.00    +0.016 A 
ATOM      7  C   UNL     1      45.777  82.222  39.041  0.00  0.00    +0.043 A 
ATOM      8  C   UNL     1      44.588  81.679  38.602  0.00  0.00    +0.196 A 
ATOM      9  C   UNL     1      44.074  80.530  39.200  0.00  0.00    +0.044 A 
ATOM     10  C   UNL     1      44.778  79.966  40.224  0.00  0.00    +0.020 A 
ATOM     11  O   UNL     1      43.844  82.231  37.558  0.00  0.00    -0.287 OA
ENDROOT
BRANCH   3  12
ATOM     12  C   UNL     1      49.093  80.984  42.516  0.00  0.00    +0.016 A 
ATOM     13  C   UNL     1      49.180  81.297  43.834  0.00  0.00    +0.005 A 
ATOM     14  C   UNL     1      50.414  81.289  44.520  0.00  0.00    +0.042 A 
ATOM     15  C   UNL     1      51.556  80.954  43.833  0.00  0.00    +0.196 A 
ATOM     16  C   UNL     1      51.514  80.628  42.490  0.00  0.00    +0.042 A 
ATOM     17  C   UNL     1      50.315  80.648  41.870  0.00  0.00    +0.005 A 
ATOM     18  O   UNL     1      52.756  80.955  44.532  0.00  0.00    -0.287 OA
ENDBRANCH   3  12
BRANCH   4  19
ATOM     19  C   UNL     1      46.568  79.046  42.526  0.00  0.00    +0.133 C 
BRANCH  19  20
ATOM     20  C   UNL     1      45.648  78.052  41.939  0.00  0.00    +0.001 A 
ATOM     21  C   UNL     1      44.374  77.835  42.385  0.00  0.00    +0.001 A 
ATOM     22  C   UNL     1      43.539  76.885  41.833  0.00  0.00    +0.037 A 
ATOM     23  C   UNL     1      44.009  76.127  40.791  0.00  0.00    +0.139 A 
ATOM     24  C   UNL     1      45.298  76.314  40.304  0.00  0.00    +0.037 A 
ATOM     25  C   UNL     1      46.111  77.267  40.873  0.00  0.00    +0.001 A 
BRANCH  23  26
ATOM     26  O   UNL     1      43.251  75.146  40.166  0.00  0.00    -0.474 OA
BRANCH  26  27
ATOM     27  C   UNL     1      41.990  75.323  39.600  0.00  0.00    +0.223 C 
BRANCH  27  28
ATOM     28  C   UNL     1      41.200  74.064  39.589  0.00  0.00    +0.120 C 
BRANCH  28  29
ATOM     29  N   UNL     1      41.265  73.286  38.395  0.00  0.00    -0.270 NA
ATOM     30  C   UNL     1      40.335  72.151  38.589  0.00  0.00    +0.072 C 
ATOM     31  C   UNL     1      40.639  71.060  37.599  0.00  0.00    +0.017 C 
ATOM     32  C   UNL     1      39.678  71.126  36.425  0.00  0.00    +0.001 C 
ATOM     33  C   UNL     1      39.889  72.320  35.557  0.00  0.00    +0.001 C 
ATOM     34  C   UNL     1      41.042  73.193  35.953  0.00  0.00    +0.017 C 
ATOM     35  C   UNL     1      40.742  73.971  37.231  0.00  0.00    +0.072 C 
ENDBRANCH  28  29
ENDBRANCH  27  28
ENDBRANCH  26  27
ENDBRANCH  23  26
ENDBRANCH  19  20
ENDBRANCH   4  19
TORSDOF 7
