REMARK  Name = Beclomethasone
REMARK  2 active torsions:
REMARK  status: ('A' for Active; 'I' for Inactive)
REMARK    1  A    between atoms: C_19  and  C_20
REMARK    2  A    between atoms: C_20  and  C_22
REMARK                            x       y       z     vdW  Elec       q    Type
REMARK                         _______ _______ _______ _____ _____    ______ ____
ROOT
ATOM      1  C   UNL     1      48.599  85.044  43.006  0.00  0.00    +0.003 C 
ATOM      2  C   UNL     1      48.020  83.658  43.205  0.00  0.00    +0.035 C 
ATOM      3  C   UNL     1      46.889  83.542  42.205  0.00  0.00    +0.003 C 
ATOM      4  C   UNL     1      46.921  82.145  41.650  0.00  0.00    +0.004 C 
ATOM      5  C   UNL     1      47.108  82.133  40.175  0.00  0.00    +0.017 C 
ATOM      6  C   UNL     1      45.896  82.704  39.519  0.00  0.00    +0.006 C 
ATOM      7  C   UNL     1      44.880  81.741  39.015  0.00  0.00    +0.022 C 
ATOM      8  C   UNL     1      45.112  80.437  39.724  0.00  0.00    -0.037 C 
ATOM      9  C   UNL     1      44.222  79.898  40.505  0.00  0.00    +0.034 C 
ATOM     10  C   UNL     1      44.426  78.638  41.203  0.00  0.00    +0.195 C 
ATOM     11  O   UNL     1      43.586  78.108  41.954  0.00  0.00    -0.287 OA
ATOM     12  C   UNL     1      45.715  78.013  40.962  0.00  0.00    +0.038 C 
ATOM     13  C   UNL     1      46.605  78.554  40.176  0.00  0.00    -0.018 C 
ATOM     14  C   UNL     1      46.417  79.805  39.471  0.00  0.00    +0.049 C 
ATOM     15  C   UNL     1      47.540  80.811  39.617  0.00  0.00    +0.102 C 
ATOM     16  C   UNL     1      48.720  80.249  40.363  0.00  0.00    +0.166 C 
ATOM     17  C   UNL     1      48.608  80.269  41.830  0.00  0.00    +0.037 C 
ATOM     18  C   UNL     1      47.960  81.456  42.461  0.00  0.00    +0.035 C 
ATOM     19  C   UNL     1      48.929  82.564  42.807  0.00  0.00    +0.180 C 
ATOM     20  O   UNL     1      49.543  83.003  41.585  0.00  0.00    -0.218 OA
ATOM     21  C   UNL     1      47.287  80.982  43.726  0.00  0.00    +0.003 C 
ATOM     22  O   UNL     1      49.900  80.963  40.010  0.00  0.00    -0.222 OA
ATOM     23 CL   UNL     1      48.135  81.142  37.975  0.00  0.00    -0.113 Cl
ATOM     24  C   UNL     1      46.348  79.446  37.943  0.00  0.00    +0.010 C 
ENDROOT
BRANCH  19  25
ATOM     25  C   UNL     1      50.014  82.212  43.699  0.00  0.00    +0.211 C 
ATOM     26  O   UNL     1      50.020  82.737  44.829  0.00  0.00    -0.291 OA
BRANCH  25  27
ATOM     27  C   UNL     1      51.157  81.303  43.501  0.00  0.00    +0.248 C 
ATOM     28  O   UNL     1      52.105  81.274  44.478  0.00  0.00    -0.212 OA
ENDBRANCH  25  27
ENDBRANCH  19  25
TORSDOF 2
