REMARK  Name = Befunolol_hci
REMARK  7 active torsions:
REMARK  status: ('A' for Active; 'I' for Inactive)
REMARK    1  A    between atoms: C_2  and  N_4
REMARK    2  A    between atoms: N_4  and  C_5
REMARK    3  A    between atoms: C_5  and  C_6
REMARK    4  A    between atoms: C_6  and  C_7
REMARK    5  A    between atoms: C_7  and  O_8
REMARK    6  A    between atoms: O_8  and  C_9
REMARK    7  A    between atoms: C_16  and  C_18
REMARK                            x       y       z     vdW  Elec       q    Type
REMARK                         _______ _______ _______ _____ _____    ______ ____
ROOT
ATOM      1  C   UNL     1      46.175  80.224  40.691  0.00  0.00    +0.173 A 
ATOM      2  C   UNL     1      45.278  80.531  39.688  0.00  0.00    +0.040 A 
ATOM      3  C   UNL     1      45.373  81.649  38.905  0.00  0.00    +0.003 A 
ATOM      4  C   UNL     1      46.403  82.517  39.113  0.00  0.00    +0.003 A 
ATOM      5  C   UNL     1      47.331  82.238  40.121  0.00  0.00    +0.041 A 
ATOM      6  C   UNL     1      47.223  81.113  40.898  0.00  0.00    +0.179 A 
ATOM      7  O   UNL     1      48.214  81.122  41.737  0.00  0.00    -0.448 OA
ATOM      8  C   UNL     1      48.993  82.167  41.594  0.00  0.00    +0.180 A 
ATOM      9  C   UNL     1      48.452  82.905  40.562  0.00  0.00    +0.044 A 
ENDROOT
BRANCH   8  10
ATOM     10  C   UNL     1      50.201  82.491  42.374  0.00  0.00    +0.208 C 
ATOM     11  O   UNL     1      50.592  81.733  43.294  0.00  0.00    -0.288 OA
ATOM     12  C   UNL     1      50.949  83.711  42.070  0.00  0.00    +0.081 C 
ENDBRANCH   8  10
BRANCH   1  13
ATOM     13  O   UNL     1      46.073  79.087  41.482  0.00  0.00    -0.470 OA
BRANCH  13  14
ATOM     14  C   UNL     1      44.984  78.224  41.220  0.00  0.00    +0.236 C 
BRANCH  14  15
ATOM     15  C   UNL     1      44.969  77.027  42.132  0.00  0.00    +0.166 C 
ATOM     16  O   UNL     1      44.874  77.349  43.461  0.00  0.00    -0.222 OA
BRANCH  15  17
ATOM     17  C   UNL     1      43.815  76.137  41.672  0.00  0.00    -0.115 C 
BRANCH  17  18
ATOM     18  N   UNL     1      43.773  74.901  42.398  0.00  0.00    +0.378 NA
BRANCH  18  20
ATOM     19  C   UNL     1      44.190  73.815  40.274  0.00  0.00    -0.032 C 
ATOM     20  C   UNL     1      43.374  73.784  41.561  0.00  0.00    -0.125 C 
ATOM     21  C   UNL     1      43.639  72.511  42.342  0.00  0.00    -0.032 C 
ENDBRANCH  18  20
ENDBRANCH  17  18
ENDBRANCH  15  17
ENDBRANCH  14  15
ENDBRANCH  13  14
ENDBRANCH   1  13
TORSDOF 7
REMARK  Name = Befunolol_hci
REMARK  7 active torsions:
REMARK  status: ('A' for Active; 'I' for Inactive)
REMARK    1  A    between atoms: C_2  and  N_4
REMARK    2  A    between atoms: N_4  and  C_5
REMARK    3  A    between atoms: C_5  and  C_6
REMARK    4  A    between atoms: C_6  and  C_7
REMARK    5  A    between atoms: C_7  and  O_8
REMARK    6  A    between atoms: O_8  and  C_9
REMARK    7  A    between atoms: C_16  and  C_18
REMARK                            x       y       z     vdW  Elec       q    Type
REMARK                         _______ _______ _______ _____ _____    ______ ____
ROOT
ATOM      1 CL   UNL     1      45.881  78.369  41.317  0.00  0.00    +0.000 Cl
ENDROOT
TORSDOF 0
