REMARK  Name = Belzutifan
REMARK  4 active torsions:
REMARK  status: ('A' for Active; 'I' for Inactive)
REMARK    1  A    between atoms: S_2  and  C_5
REMARK    2  A    between atoms: C_11  and  O_14
REMARK    3  A    between atoms: O_14  and  C_15
REMARK    4  A    between atoms: C_19  and  C_21
REMARK                            x       y       z     vdW  Elec       q    Type
REMARK                         _______ _______ _______ _____ _____    ______ ____
ROOT
ATOM      1  C   UNL     1      41.859  77.487  38.687  0.00  0.00    +0.104 A 
ATOM      2  C   UNL     1      42.449  77.165  39.889  0.00  0.00    +0.029 A 
ATOM      3  C   UNL     1      42.135  76.177  40.954  0.00  0.00    +0.211 C 
ATOM      4  C   UNL     1      43.504  75.892  41.529  0.00  0.00    +0.232 C 
ATOM      5  C   UNL     1      44.043  77.331  41.605  0.00  0.00    +0.221 C 
ATOM      6  C   UNL     1      43.559  77.843  40.273  0.00  0.00    +0.047 A 
ATOM      7  C   UNL     1      44.170  78.878  39.518  0.00  0.00    +0.144 A 
ATOM      8  C   UNL     1      43.543  79.169  38.317  0.00  0.00    +0.039 A 
ATOM      9  C   UNL     1      42.395  78.475  37.908  0.00  0.00    +0.021 A 
ATOM     10  F   UNL     1      43.428  77.952  42.649  0.00  0.00    -0.229 F 
ATOM     11  F   UNL     1      44.204  75.168  40.576  0.00  0.00    -0.231 F 
ATOM     12  O   UNL     1      41.531  75.036  40.481  0.00  0.00    -0.215 OA
ENDROOT
BRANCH   1  14
ATOM     13  C   UNL     1      39.146  76.828  39.371  0.00  0.00    +0.182 C 
ATOM     14  S   UNL     1      40.449  76.644  38.173  0.00  0.00    +0.010 S 
ATOM     15  O   UNL     1      40.729  75.154  38.076  0.00  0.00    -0.169 OA
ATOM     16  O   UNL     1      39.896  77.148  36.872  0.00  0.00    -0.169 OA
ENDBRANCH   1  14
BRANCH   7  17
ATOM     17  O   UNL     1      45.247  79.482  39.970  0.00  0.00    -0.454 OA
BRANCH  17  18
ATOM     18  C   UNL     1      46.100  80.459  39.950  0.00  0.00    +0.148 A 
ATOM     19  C   UNL     1      46.113  81.574  39.143  0.00  0.00    +0.067 A 
ATOM     20  C   UNL     1      47.110  82.552  39.240  0.00  0.00    +0.144 A 
ATOM     21  C   UNL     1      48.114  82.411  40.164  0.00  0.00    +0.040 A 
ATOM     22  C   UNL     1      48.147  81.318  40.993  0.00  0.00    +0.074 A 
ATOM     23  C   UNL     1      47.171  80.379  40.883  0.00  0.00    +0.048 A 
ATOM     24  F   UNL     1      47.056  83.625  38.409  0.00  0.00    -0.204 F 
BRANCH  22  25
ATOM     25  C   UNL     1      49.209  81.158  41.978  0.00  0.00    +0.101 C 
ATOM     26  N   UNL     1      50.049  81.049  42.766  0.00  0.00    -0.191 NA
ENDBRANCH  22  25
ENDBRANCH  17  18
ENDBRANCH   7  17
TORSDOF 4
