REMARK  Name = Bemetizide
REMARK  3 active torsions:
REMARK  status: ('A' for Active; 'I' for Inactive)
REMARK    1  A    between atoms: C_2  and  C_3
REMARK    2  A    between atoms: C_2  and  C_20
REMARK    3  A    between atoms: C_8  and  S_15
REMARK                            x       y       z     vdW  Elec       q    Type
REMARK                         _______ _______ _______ _____ _____    ______ ____
ROOT
ATOM      1  C   UNL     1      47.184  81.237  41.375  0.00  0.00    +0.193 C 
ATOM      2  N   UNL     1      46.618  79.918  41.564  0.00  0.00    -0.218 NA
ATOM      3  C   UNL     1      45.508  79.445  40.791  0.00  0.00    +0.086 A 
ATOM      4  C   UNL     1      44.838  78.287  41.196  0.00  0.00    +0.030 A 
ATOM      5  C   UNL     1      43.767  77.810  40.471  0.00  0.00    +0.078 A 
ATOM      6  C   UNL     1      43.353  78.481  39.336  0.00  0.00    +0.137 A 
ATOM      7  C   UNL     1      44.007  79.624  38.929  0.00  0.00    +0.042 A 
ATOM      8  C   UNL     1      45.061  80.076  39.660  0.00  0.00    +0.140 A 
ATOM      9  S   UNL     1      45.922  81.538  39.165  0.00  0.00    +0.080 S 
ATOM     10  O   UNL     1      45.100  82.704  39.649  0.00  0.00    -0.152 OA
ATOM     11  O   UNL     1      46.093  81.560  37.676  0.00  0.00    -0.152 OA
ATOM     12  N   UNL     1      47.440  81.521  39.979  0.00  0.00    -0.057 NA
ATOM     13 CL   UNL     1      42.981  76.353  41.045  0.00  0.00    -0.081 Cl
ENDROOT
BRANCH   6  14
ATOM     14  S   UNL     1      41.992  77.840  38.451  0.00  0.00    +0.094 S 
ATOM     15  O   UNL     1      42.038  76.337  38.461  0.00  0.00    -0.150 OA
ATOM     16  O   UNL     1      42.036  78.273  37.018  0.00  0.00    -0.150 OA
ATOM     17  N   UNL     1      40.489  78.338  39.117  0.00  0.00    +0.039 NA
ENDBRANCH   6  14
BRANCH   1  19
ATOM     18  C   UNL     1      49.528  80.554  41.454  0.00  0.00    +0.008 C 
ATOM     19  C   UNL     1      48.438  81.314  42.207  0.00  0.00    +0.061 C 
BRANCH  19  20
ATOM     20  C   UNL     1      48.839  82.678  42.554  0.00  0.00    -0.019 A 
ATOM     21  C   UNL     1      50.168  83.034  42.481  0.00  0.00    -0.004 A 
ATOM     22  C   UNL     1      50.609  84.307  42.796  0.00  0.00    -0.000 A 
ATOM     23  C   UNL     1      49.723  85.280  43.200  0.00  0.00    -0.000 A 
ATOM     24  C   UNL     1      48.389  84.940  43.279  0.00  0.00    -0.000 A 
ATOM     25  C   UNL     1      47.956  83.651  42.959  0.00  0.00    -0.004 A 
ENDBRANCH  19  20
ENDBRANCH   1  19
TORSDOF 3
