REMARK  Name = Bempedoic_acid
REMARK  14 active torsions:
REMARK  status: ('A' for Active; 'I' for Inactive)
REMARK    1  A    between atoms: C_2  and  C_4
REMARK    2  A    between atoms: C_2  and  C_22
REMARK    3  A    between atoms: C_4  and  C_5
REMARK    4  A    between atoms: C_5  and  C_6
REMARK    5  A    between atoms: C_6  and  C_7
REMARK    6  A    between atoms: C_7  and  C_8
REMARK    7  A    between atoms: C_8  and  C_9
REMARK    8  A    between atoms: C_9  and  C_10
REMARK    9  A    between atoms: C_10  and  C_11
REMARK   10  A    between atoms: C_11  and  C_12
REMARK   11  A    between atoms: C_12  and  C_13
REMARK   12  A    between atoms: C_13  and  C_14
REMARK   13  A    between atoms: C_14  and  C_15
REMARK   14  A    between atoms: C_15  and  C_18
REMARK                            x       y       z     vdW  Elec       q    Type
REMARK                         _______ _______ _______ _____ _____    ______ ____
ROOT
ATOM      1  C   UNL     1      45.479  80.978  38.787  0.00  0.00    +0.152 C 
ATOM      2  O   UNL     1      44.614  81.937  38.259  0.00  0.00    -0.223 OA
ENDROOT
BRANCH   1   3
ATOM      3  C   UNL     1      45.667  81.322  40.258  0.00  0.00    +0.033 C 
BRANCH   3   4
ATOM      4  C   UNL     1      47.169  81.396  40.494  0.00  0.00    +0.003 C 
BRANCH   4   5
ATOM      5  C   UNL     1      47.462  82.351  41.655  0.00  0.00    +0.000 C 
BRANCH   5   6
ATOM      6  C   UNL     1      48.934  82.241  41.932  0.00  0.00    +0.001 C 
BRANCH   6   7
ATOM      7  C   UNL     1      49.473  83.214  42.904  0.00  0.00    +0.011 C 
BRANCH   7   9
ATOM      8  C   UNL     1      50.959  81.676  44.066  0.00  0.00    +0.011 C 
ATOM      9  C   UNL     1      50.876  83.001  43.330  0.00  0.00    +0.094 C 
ATOM     10  C   UNL     1      51.515  84.097  44.104  0.00  0.00    +0.011 C 
BRANCH   9  11
ATOM     11  C   UNL     1      51.666  82.782  42.059  0.00  0.00    +0.364 C 
ATOM     12  O   UNL     1      52.269  81.703  41.903  0.00  0.00    -0.246 OA
ATOM     13  O   UNL     1      51.728  83.744  41.088  0.00  0.00    -0.246 OA
ENDBRANCH   9  11
ENDBRANCH   7   9
ENDBRANCH   6   7
ENDBRANCH   5   6
ENDBRANCH   4   5
ENDBRANCH   3   4
ENDBRANCH   1   3
BRANCH   1  14
ATOM     14  C   UNL     1      44.819  79.644  38.694  0.00  0.00    +0.033 C 
BRANCH  14  15
ATOM     15  C   UNL     1      43.330  79.678  38.808  0.00  0.00    +0.003 C 
BRANCH  15  16
ATOM     16  C   UNL     1      42.798  78.268  38.667  0.00  0.00    +0.000 C 
BRANCH  16  17
ATOM     17  C   UNL     1      41.324  78.180  38.802  0.00  0.00    +0.001 C 
BRANCH  17  18
ATOM     18  C   UNL     1      40.552  77.711  37.634  0.00  0.00    +0.011 C 
BRANCH  18  19
ATOM     19  C   UNL     1      39.664  76.540  37.799  0.00  0.00    +0.094 C 
ATOM     20  C   UNL     1      40.597  75.303  37.782  0.00  0.00    +0.011 C 
ATOM     21  C   UNL     1      39.136  76.596  39.245  0.00  0.00    +0.011 C 
BRANCH  19  22
ATOM     22  C   UNL     1      38.550  76.358  36.898  0.00  0.00    +0.364 C 
ATOM     23  O   UNL     1      37.426  76.863  37.143  0.00  0.00    -0.246 OA
ATOM     24  O   UNL     1      38.676  75.623  35.737  0.00  0.00    -0.246 OA
ENDBRANCH  19  22
ENDBRANCH  18  19
ENDBRANCH  17  18
ENDBRANCH  16  17
ENDBRANCH  15  16
ENDBRANCH  14  15
ENDBRANCH   1  14
TORSDOF 14
