REMARK  Name = Benazepril
REMARK  10 active torsions:
REMARK  status: ('A' for Active; 'I' for Inactive)
REMARK    1  A    between atoms: C_2  and  O_3
REMARK    2  A    between atoms: O_3  and  C_4
REMARK    3  A    between atoms: C_4  and  C_6
REMARK    4  A    between atoms: C_6  and  C_7
REMARK    5  A    between atoms: C_6  and  N_15
REMARK    6  A    between atoms: C_7  and  C_8
REMARK    7  A    between atoms: C_8  and  C_9
REMARK    8  A    between atoms: N_15  and  C_16
REMARK    9  A    between atoms: N_25  and  C_28
REMARK   10  A    between atoms: C_28  and  C_29
REMARK                            x       y       z     vdW  Elec       q    Type
REMARK                         _______ _______ _______ _____ _____    ______ ____
ROOT
ATOM      1  C   UNL     1      45.343  79.872  40.623  0.00  0.00    +0.150 C 
ATOM      2  C   UNL     1      45.238  78.647  41.416  0.00  0.00    +0.031 C 
ATOM      3  C   UNL     1      45.340  77.318  40.764  0.00  0.00    +0.030 C 
ATOM      4  C   UNL     1      43.973  76.978  40.253  0.00  0.00    -0.008 A 
ATOM      5  C   UNL     1      43.463  75.791  40.731  0.00  0.00    -0.003 A 
ATOM      6  C   UNL     1      42.199  75.436  40.317  0.00  0.00    -0.000 A 
ATOM      7  C   UNL     1      41.432  76.207  39.457  0.00  0.00    +0.001 A 
ATOM      8  C   UNL     1      41.958  77.391  38.989  0.00  0.00    +0.015 A 
ATOM      9  C   UNL     1      43.216  77.775  39.381  0.00  0.00    +0.050 A 
ATOM     10  N   UNL     1      43.634  79.014  38.794  0.00  0.00    -0.247 N 
ATOM     11  C   UNL     1      44.428  79.987  39.454  0.00  0.00    +0.246 C 
ATOM     12  O   UNL     1      44.355  81.137  38.979  0.00  0.00    -0.273 OA
ENDROOT
BRANCH   1  13
ATOM     13  N   UNL     1      46.610  80.392  40.325  0.00  0.00    -0.201 NA
BRANCH  13  14
ATOM     14  C   UNL     1      47.691  80.311  41.235  0.00  0.00    +0.172 C 
BRANCH  14  15
ATOM     15  C   UNL     1      48.734  79.457  40.558  0.00  0.00    +0.333 C 
ATOM     16  O   UNL     1      48.727  79.042  39.415  0.00  0.00    -0.249 OA
BRANCH  15  17
ATOM     17  O   UNL     1      49.870  79.079  41.328  0.00  0.00    -0.448 OA
BRANCH  17  19
ATOM     18  C   UNL     1      51.257  77.966  39.763  0.00  0.00    +0.051 C 
ATOM     19  C   UNL     1      50.513  77.827  41.065  0.00  0.00    +0.209 C 
ENDBRANCH  17  19
ENDBRANCH  15  17
ENDBRANCH  14  15
BRANCH  14  20
ATOM     20  C   UNL     1      48.245  81.670  41.456  0.00  0.00    +0.033 C 
BRANCH  20  21
ATOM     21  C   UNL     1      48.097  82.425  42.690  0.00  0.00    +0.028 C 
BRANCH  21  22
ATOM     22  C   UNL     1      48.733  83.688  42.955  0.00  0.00    -0.022 A 
ATOM     23  C   UNL     1      50.125  83.786  43.053  0.00  0.00    -0.004 A 
ATOM     24  C   UNL     1      50.768  84.991  43.210  0.00  0.00    -0.000 A 
ATOM     25  C   UNL     1      50.054  86.162  43.279  0.00  0.00    -0.000 A 
ATOM     26  C   UNL     1      48.686  86.093  43.185  0.00  0.00    -0.000 A 
ATOM     27  C   UNL     1      48.035  84.908  43.029  0.00  0.00    -0.004 A 
ENDBRANCH  21  22
ENDBRANCH  20  21
ENDBRANCH  14  20
ENDBRANCH  13  14
ENDBRANCH   1  13
BRANCH  10  28
ATOM     28  C   UNL     1      43.214  79.253  37.443  0.00  0.00    +0.213 C 
BRANCH  28  29
ATOM     29  C   UNL     1      41.718  79.388  37.368  0.00  0.00    +0.385 C 
ATOM     30  O   UNL     1      41.202  79.647  36.277  0.00  0.00    -0.244 OA
ATOM     31  O   UNL     1      40.964  79.225  38.495  0.00  0.00    -0.244 OA
ENDBRANCH  28  29
ENDBRANCH  10  28
TORSDOF 10
