REMARK  Name = Bendamustine_hydrochloride
REMARK  9 active torsions:
REMARK  status: ('A' for Active; 'I' for Inactive)
REMARK    1  A    between atoms: C_6  and  N_9
REMARK    2  A    between atoms: N_9  and  C_10
REMARK    3  A    between atoms: N_9  and  C_13
REMARK    4  A    between atoms: C_10  and  C_11
REMARK    5  A    between atoms: C_13  and  C_14
REMARK    6  A    between atoms: C_17  and  C_18
REMARK    7  A    between atoms: C_18  and  C_19
REMARK    8  A    between atoms: C_19  and  C_20
REMARK    9  A    between atoms: C_20  and  C_21
REMARK                            x       y       z     vdW  Elec       q    Type
REMARK                         _______ _______ _______ _____ _____    ______ ____
ROOT
ATOM      1  C   UNL     1      43.359  76.860  40.363  0.00  0.00    +0.132 C 
ATOM      2  N   UNL     1      43.665  78.092  39.713  0.00  0.00    -0.313 N 
ATOM      3  C   UNL     1      44.642  78.960  40.097  0.00  0.00    +0.079 A 
ATOM      4  C   UNL     1      44.638  80.042  39.236  0.00  0.00    +0.100 A 
ATOM      5  C   UNL     1      45.532  81.082  39.398  0.00  0.00    +0.035 A 
ATOM      6  C   UNL     1      46.435  81.065  40.409  0.00  0.00    +0.050 A 
ATOM      7  C   UNL     1      46.442  79.994  41.264  0.00  0.00    +0.016 A 
ATOM      8  C   UNL     1      45.541  78.932  41.111  0.00  0.00    +0.020 A 
ATOM      9  N   UNL     1      43.670  79.806  38.360  0.00  0.00    -0.231 NA
ATOM     10  C   UNL     1      43.061  78.606  38.643  0.00  0.00    +0.120 A 
ENDROOT
BRANCH   6  11
ATOM     11  N   UNL     1      47.410  82.121  40.632  0.00  0.00    -0.305 N 
BRANCH  11  12
ATOM     12  C   UNL     1      47.422  83.180  39.722  0.00  0.00    +0.108 C 
BRANCH  12  13
ATOM     13  C   UNL     1      48.541  83.421  38.792  0.00  0.00    +0.116 C 
ATOM     14 CL   UNL     1      49.999  83.945  39.620  0.00  0.00    -0.112 Cl
ENDBRANCH  12  13
ENDBRANCH  11  12
BRANCH  11  15
ATOM     15  C   UNL     1      48.272  81.947  41.749  0.00  0.00    +0.108 C 
BRANCH  15  16
ATOM     16  C   UNL     1      49.542  81.216  41.579  0.00  0.00    +0.116 C 
ATOM     17 CL   UNL     1      50.365  81.191  43.188  0.00  0.00    -0.112 Cl
ENDBRANCH  15  16
ENDBRANCH  11  15
ENDBRANCH   6  11
BRANCH  10  18
ATOM     18  C   UNL     1      41.965  78.132  37.809  0.00  0.00    +0.065 C 
BRANCH  18  19
ATOM     19  C   UNL     1      41.349  76.832  38.128  0.00  0.00    +0.020 C 
BRANCH  19  20
ATOM     20  C   UNL     1      40.216  76.629  37.089  0.00  0.00    +0.115 C 
BRANCH  20  21
ATOM     21  C   UNL     1      39.221  77.690  37.180  0.00  0.00    +0.365 C 
ATOM     22  O   UNL     1      38.664  77.965  38.266  0.00  0.00    -0.246 OA
ATOM     23  O   UNL     1      38.858  78.436  36.061  0.00  0.00    -0.246 OA
ENDBRANCH  20  21
ENDBRANCH  19  20
ENDBRANCH  18  19
ENDBRANCH  10  18
TORSDOF 9
REMARK  Name = Bendamustine_hydrochloride
REMARK  9 active torsions:
REMARK  status: ('A' for Active; 'I' for Inactive)
REMARK    1  A    between atoms: C_6  and  N_9
REMARK    2  A    between atoms: N_9  and  C_10
REMARK    3  A    between atoms: N_9  and  C_13
REMARK    4  A    between atoms: C_10  and  C_11
REMARK    5  A    between atoms: C_13  and  C_14
REMARK    6  A    between atoms: C_17  and  C_18
REMARK    7  A    between atoms: C_18  and  C_19
REMARK    8  A    between atoms: C_19  and  C_20
REMARK    9  A    between atoms: C_20  and  C_21
REMARK                            x       y       z     vdW  Elec       q    Type
REMARK                         _______ _______ _______ _____ _____    ______ ____
ROOT
ATOM      1 CL   UNL     1      45.303  80.053  39.692  0.00  0.00    +0.000 Cl
ENDROOT
TORSDOF 0
