REMARK  Name = Bendroflumethiazide
REMARK  4 active torsions:
REMARK  status: ('A' for Active; 'I' for Inactive)
REMARK    1  A    between atoms: C_4  and  C_7
REMARK    2  A    between atoms: C_7  and  C_8
REMARK    3  A    between atoms: C_13  and  S_20
REMARK    4  A    between atoms: C_14  and  C_16
REMARK                            x       y       z     vdW  Elec       q    Type
REMARK                         _______ _______ _______ _____ _____    ______ ____
ROOT
ATOM      1  C   UNL     1      47.464  81.749  41.260  0.00  0.00    +0.193 C 
ATOM      2  N   UNL     1      46.666  80.742  41.860  0.00  0.00    -0.218 NA
ATOM      3  C   UNL     1      45.673  79.950  41.219  0.00  0.00    +0.086 A 
ATOM      4  C   UNL     1      45.117  80.310  40.017  0.00  0.00    +0.140 A 
ATOM      5  C   UNL     1      44.164  79.543  39.407  0.00  0.00    +0.041 A 
ATOM      6  C   UNL     1      43.700  78.350  39.968  0.00  0.00    +0.130 A 
ATOM      7  C   UNL     1      44.256  77.988  41.171  0.00  0.00    +0.091 A 
ATOM      8  C   UNL     1      45.228  78.773  41.790  0.00  0.00    +0.023 A 
ATOM      9  S   UNL     1      45.698  81.799  39.316  0.00  0.00    +0.080 S 
ATOM     10  O   UNL     1      44.961  82.993  39.832  0.00  0.00    -0.152 OA
ATOM     11  O   UNL     1      45.690  81.744  37.803  0.00  0.00    -0.152 OA
ATOM     12  N   UNL     1      47.363  81.897  39.848  0.00  0.00    -0.057 NA
ENDROOT
BRANCH   7  13
ATOM     13  C   UNL     1      43.805  76.734  41.810  0.00  0.00    +0.420 C 
ATOM     14  F   UNL     1      42.474  76.757  42.170  0.00  0.00    -0.166 F 
ATOM     15  F   UNL     1      44.509  76.591  42.992  0.00  0.00    -0.166 F 
ATOM     16  F   UNL     1      44.113  75.621  41.053  0.00  0.00    -0.166 F 
ENDBRANCH   7  13
BRANCH   6  17
ATOM     17  S   UNL     1      42.496  77.431  39.148  0.00  0.00    +0.094 S 
ATOM     18  O   UNL     1      42.676  75.969  39.204  0.00  0.00    -0.150 OA
ATOM     19  O   UNL     1      41.136  77.738  39.769  0.00  0.00    -0.150 OA
ATOM     20  N   UNL     1      42.329  77.903  37.492  0.00  0.00    +0.039 NA
ENDBRANCH   6  17
BRANCH   1  21
ATOM     21  C   UNL     1      48.938  81.627  41.627  0.00  0.00    +0.068 C 
BRANCH  21  25
ATOM     22  C   UNL     1      50.496  85.186  43.289  0.00  0.00    -0.000 A 
ATOM     23  C   UNL     1      49.138  84.961  43.334  0.00  0.00    -0.000 A 
ATOM     24  C   UNL     1      48.597  83.808  42.799  0.00  0.00    -0.004 A 
ATOM     25  C   UNL     1      49.455  82.879  42.214  0.00  0.00    -0.019 A 
ATOM     26  C   UNL     1      50.807  83.114  42.174  0.00  0.00    -0.004 A 
ATOM     27  C   UNL     1      51.361  84.280  42.715  0.00  0.00    -0.000 A 
ENDBRANCH  21  25
ENDBRANCH   1  21
TORSDOF 4
