REMARK  Name = Benorilate
REMARK  6 active torsions:
REMARK  status: ('A' for Active; 'I' for Inactive)
REMARK    1  A    between atoms: N_4  and  C_5
REMARK    2  A    between atoms: C_8  and  O_11
REMARK    3  A    between atoms: O_11  and  C_12
REMARK    4  A    between atoms: C_12  and  C_14
REMARK    5  A    between atoms: C_19  and  O_20
REMARK    6  A    between atoms: O_20  and  C_21
REMARK                            x       y       z     vdW  Elec       q    Type
REMARK                         _______ _______ _______ _____ _____    ______ ____
ROOT
ATOM      1  C   UNL     1      47.143  80.793  41.763  0.00  0.00    +0.349 C 
ATOM      2  O   UNL     1      46.266  81.670  41.660  0.00  0.00    -0.244 OA
ENDROOT
BRANCH   1   3
ATOM      3  C   UNL     1      48.540  81.072  42.007  0.00  0.00    +0.111 A 
ATOM      4  C   UNL     1      49.462  80.057  42.002  0.00  0.00    +0.010 A 
ATOM      5  C   UNL     1      50.804  80.347  42.240  0.00  0.00    +0.000 A 
ATOM      6  C   UNL     1      51.250  81.629  42.484  0.00  0.00    +0.003 A 
ATOM      7  C   UNL     1      50.305  82.632  42.483  0.00  0.00    +0.038 A 
ATOM      8  C   UNL     1      48.969  82.345  42.247  0.00  0.00    +0.155 A 
BRANCH   8   9
ATOM      9  O   UNL     1      48.014  83.363  42.248  0.00  0.00    -0.424 OA
BRANCH   9  10
ATOM     10  C   UNL     1      48.065  84.414  43.150  0.00  0.00    +0.322 C 
ATOM     11  O   UNL     1      48.977  84.398  44.023  0.00  0.00    -0.250 OA
ATOM     12  C   UNL     1      47.125  85.549  43.158  0.00  0.00    +0.122 C 
ENDBRANCH   9  10
ENDBRANCH   8   9
ENDBRANCH   1   3
BRANCH   1  13
ATOM     13  O   UNL     1      46.707  79.462  41.627  0.00  0.00    -0.421 OA
BRANCH  13  17
ATOM     14  C   UNL     1      43.480  78.528  39.146  0.00  0.00    +0.074 A 
ATOM     15  C   UNL     1      43.690  77.836  40.312  0.00  0.00    +0.020 A 
ATOM     16  C   UNL     1      44.751  78.108  41.175  0.00  0.00    +0.039 A 
ATOM     17  C   UNL     1      45.635  79.112  40.855  0.00  0.00    +0.149 A 
ATOM     18  C   UNL     1      45.440  79.829  39.673  0.00  0.00    +0.039 A 
ATOM     19  C   UNL     1      44.388  79.549  38.832  0.00  0.00    +0.020 A 
BRANCH  14  23
ATOM     20  C   UNL     1      40.539  77.093  37.081  0.00  0.00    +0.097 C 
ATOM     21  C   UNL     1      41.548  77.206  38.193  0.00  0.00    +0.246 C 
ATOM     22  O   UNL     1      41.609  76.330  39.087  0.00  0.00    -0.273 OA
ATOM     23  N   UNL     1      42.431  78.310  38.224  0.00  0.00    -0.179 NA
ENDBRANCH  14  23
ENDBRANCH  13  17
ENDBRANCH   1  13
TORSDOF 6
