REMARK  Name = Benperidol
REMARK  6 active torsions:
REMARK  status: ('A' for Active; 'I' for Inactive)
REMARK    1  A    between atoms: N_3  and  C_17
REMARK    2  A    between atoms: C_6  and  N_7
REMARK    3  A    between atoms: C_17  and  C_18
REMARK    4  A    between atoms: C_18  and  C_19
REMARK    5  A    between atoms: C_19  and  C_20
REMARK    6  A    between atoms: C_20  and  C_22
REMARK                            x       y       z     vdW  Elec       q    Type
REMARK                         _______ _______ _______ _____ _____    ______ ____
ROOT
ATOM      1  C   UNL     1      45.192  77.357  39.804  0.00  0.00    +0.040 C 
ATOM      2  C   UNL     1      45.928  78.656  39.462  0.00  0.00    +0.074 C 
ATOM      3  N   UNL     1      46.190  79.294  40.718  0.00  0.00    -0.273 NA
ATOM      4  C   UNL     1      45.560  78.772  41.861  0.00  0.00    +0.074 C 
ATOM      5  C   UNL     1      44.110  78.308  41.696  0.00  0.00    +0.040 C 
ATOM      6  C   UNL     1      43.845  77.833  40.300  0.00  0.00    +0.093 C 
ENDROOT
BRANCH   6   7
ATOM      7  N   UNL     1      42.847  76.854  40.093  0.00  0.00    -0.280 N 
ATOM      8  C   UNL     1      41.804  76.881  39.203  0.00  0.00    +0.082 A 
ATOM      9  C   UNL     1      41.376  77.784  38.252  0.00  0.00    +0.019 A 
ATOM     10  C   UNL     1      40.263  77.487  37.491  0.00  0.00    +0.002 A 
ATOM     11  C   UNL     1      39.558  76.314  37.648  0.00  0.00    +0.002 A 
ATOM     12  C   UNL     1      39.980  75.425  38.583  0.00  0.00    +0.021 A 
ATOM     13  C   UNL     1      41.102  75.690  39.373  0.00  0.00    +0.102 A 
ATOM     14  N   UNL     1      41.717  74.992  40.330  0.00  0.00    -0.191 NA
ATOM     15  C   UNL     1      42.787  75.688  40.781  0.00  0.00    +0.350 A 
ATOM     16  O   UNL     1      43.518  75.209  41.689  0.00  0.00    -0.244 OA
ENDBRANCH   6   7
BRANCH   3  17
ATOM     17  C   UNL     1      46.283  80.728  40.609  0.00  0.00    +0.073 C 
BRANCH  17  18
ATOM     18  C   UNL     1      47.666  81.254  40.617  0.00  0.00    +0.025 C 
BRANCH  18  19
ATOM     19  C   UNL     1      48.135  81.605  42.023  0.00  0.00    +0.071 C 
BRANCH  19  20
ATOM     20  C   UNL     1      49.548  81.975  42.102  0.00  0.00    +0.173 C 
ATOM     21  O   UNL     1      50.407  81.339  41.422  0.00  0.00    -0.291 OA
BRANCH  20  22
ATOM     22  C   UNL     1      50.067  83.062  42.928  0.00  0.00    +0.035 A 
ATOM     23  C   UNL     1      49.190  83.910  43.614  0.00  0.00    +0.005 A 
ATOM     24  C   UNL     1      49.649  84.936  44.388  0.00  0.00    +0.030 A 
ATOM     25  C   UNL     1      50.997  85.180  44.526  0.00  0.00    +0.140 A 
ATOM     26  C   UNL     1      51.877  84.379  43.874  0.00  0.00    +0.030 A 
ATOM     27  C   UNL     1      51.412  83.333  43.086  0.00  0.00    +0.005 A 
ATOM     28  F   UNL     1      51.421  86.189  45.294  0.00  0.00    -0.204 F 
ENDBRANCH  20  22
ENDBRANCH  19  20
ENDBRANCH  18  19
ENDBRANCH  17  18
ENDBRANCH   3  17
TORSDOF 6
