REMARK  Name = Bentiromide
REMARK  7 active torsions:
REMARK  status: ('A' for Active; 'I' for Inactive)
REMARK    1  A    between atoms: C_4  and  C_7
REMARK    2  A    between atoms: N_9  and  C_10
REMARK    3  A    between atoms: C_10  and  C_11
REMARK    4  A    between atoms: C_10  and  C_19
REMARK    5  A    between atoms: C_11  and  C_12
REMARK    6  A    between atoms: N_21  and  C_22
REMARK    7  A    between atoms: C_25  and  C_28
REMARK                            x       y       z     vdW  Elec       q    Type
REMARK                         _______ _______ _______ _____ _____    ______ ____
ROOT
ATOM      1  C   UNL     1      46.264  80.983  40.705  0.00  0.00    +0.178 C 
ENDROOT
BRANCH   1   4
ATOM      2  C   UNL     1      44.630  80.753  38.801  0.00  0.00    +0.265 C 
ATOM      3  O   UNL     1      45.328  81.145  37.818  0.00  0.00    -0.268 OA
ATOM      4  N   UNL     1      44.989  81.284  40.060  0.00  0.00    -0.194 NA
BRANCH   2   8
ATOM      5  C   UNL     1      41.458  78.049  38.151  0.00  0.00    +0.000 A 
ATOM      6  C   UNL     1      41.850  78.318  39.444  0.00  0.00    +0.000 A 
ATOM      7  C   UNL     1      42.897  79.210  39.681  0.00  0.00    +0.005 A 
ATOM      8  C   UNL     1      43.531  79.814  38.619  0.00  0.00    +0.055 A 
ATOM      9  C   UNL     1      43.135  79.542  37.325  0.00  0.00    +0.005 A 
ATOM     10  C   UNL     1      42.101  78.662  37.086  0.00  0.00    +0.000 A 
ENDBRANCH   2   8
ENDBRANCH   1   4
BRANCH   1  11
ATOM     11  C   UNL     1      46.089  79.660  41.392  0.00  0.00    +0.266 C 
ATOM     12  O   UNL     1      47.079  79.055  41.880  0.00  0.00    -0.271 OA
ATOM     13  N   UNL     1      44.818  79.043  41.521  0.00  0.00    -0.178 NA
BRANCH  13  14
ATOM     14  C   UNL     1      44.746  77.744  42.094  0.00  0.00    +0.073 A 
ATOM     15  C   UNL     1      43.778  76.883  41.615  0.00  0.00    +0.017 A 
ATOM     16  C   UNL     1      43.628  75.590  42.111  0.00  0.00    +0.008 A 
ATOM     17  C   UNL     1      44.480  75.174  43.111  0.00  0.00    +0.080 A 
ATOM     18  C   UNL     1      45.452  76.053  43.584  0.00  0.00    +0.008 A 
ATOM     19  C   UNL     1      45.592  77.323  43.090  0.00  0.00    +0.017 A 
BRANCH  17  20
ATOM     20  C   UNL     1      44.396  73.840  43.689  0.00  0.00    +0.388 C 
ATOM     21  O   UNL     1      45.403  73.097  43.601  0.00  0.00    -0.241 OA
ATOM     22  O   UNL     1      43.272  73.377  44.314  0.00  0.00    -0.241 OA
ENDBRANCH  17  20
ENDBRANCH  13  14
ENDBRANCH   1  11
BRANCH   1  23
ATOM     23  C   UNL     1      46.524  82.079  41.708  0.00  0.00    +0.057 C 
BRANCH  23  24
ATOM     24  C   UNL     1      47.969  82.297  41.822  0.00  0.00    -0.020 A 
ATOM     25  C   UNL     1      48.847  81.549  41.071  0.00  0.00    -0.001 A 
ATOM     26  C   UNL     1      50.211  81.734  41.160  0.00  0.00    +0.042 A 
ATOM     27  C   UNL     1      50.754  82.682  42.009  0.00  0.00    +0.196 A 
ATOM     28  C   UNL     1      49.865  83.424  42.756  0.00  0.00    +0.042 A 
ATOM     29  C   UNL     1      48.497  83.245  42.673  0.00  0.00    -0.001 A 
ATOM     30  O   UNL     1      52.124  82.873  42.103  0.00  0.00    -0.287 OA
ENDBRANCH  23  24
ENDBRANCH   1  23
TORSDOF 7
