REMARK  Name = Benzquinamide
REMARK  7 active torsions:
REMARK  status: ('A' for Active; 'I' for Inactive)
REMARK    1  A    between atoms: C_2  and  N_3
REMARK    2  A    between atoms: N_3  and  C_4
REMARK    3  A    between atoms: C_6  and  C_8
REMARK    4  A    between atoms: C_15  and  O_28
REMARK    5  A    between atoms: C_16  and  O_26
REMARK    6  A    between atoms: C_21  and  O_22
REMARK    7  A    between atoms: O_22  and  C_23
REMARK                            x       y       z     vdW  Elec       q    Type
REMARK                         _______ _______ _______ _____ _____    ______ ____
ROOT
ATOM      1  C   UNL     1      44.453  79.096  38.655  0.00  0.00    +0.133 C 
ATOM      2  C   UNL     1      45.225  80.296  38.196  0.00  0.00    +0.085 C 
ATOM      3  N   UNL     1      45.858  81.082  39.188  0.00  0.00    -0.269 NA
ATOM      4  C   UNL     1      46.535  82.198  38.583  0.00  0.00    +0.077 C 
ATOM      5  C   UNL     1      48.062  82.109  38.734  0.00  0.00    +0.044 C 
ATOM      6  C   UNL     1      48.276  82.061  40.199  0.00  0.00    -0.020 A 
ATOM      7  C   UNL     1      49.110  82.896  40.899  0.00  0.00    +0.036 A 
ATOM      8  C   UNL     1      49.228  82.776  42.293  0.00  0.00    +0.172 A 
ATOM      9  C   UNL     1      48.492  81.805  42.953  0.00  0.00    +0.172 A 
ATOM     10  C   UNL     1      47.651  80.960  42.255  0.00  0.00    +0.037 A 
ATOM     11  C   UNL     1      47.549  81.097  40.874  0.00  0.00    -0.008 A 
ATOM     12  C   UNL     1      46.686  80.246  40.014  0.00  0.00    +0.084 C 
ATOM     13  C   UNL     1      45.786  79.349  40.788  0.00  0.00    +0.065 C 
ATOM     14  C   UNL     1      45.129  78.393  39.810  0.00  0.00    +0.180 C 
ENDROOT
BRANCH   1  16
ATOM     15  N   UNL     1      41.881  79.081  38.834  0.00  0.00    -0.279 N 
ATOM     16  C   UNL     1      43.152  79.593  39.167  0.00  0.00    +0.230 C 
ATOM     17  O   UNL     1      43.188  80.581  39.986  0.00  0.00    -0.275 OA
BRANCH  15  19
ATOM     18  C   UNL     1      41.521  77.516  36.988  0.00  0.00    +0.023 C 
ATOM     19  C   UNL     1      41.477  78.962  37.473  0.00  0.00    +0.093 C 
ENDBRANCH  15  19
BRANCH  15  20
ATOM     20  C   UNL     1      40.977  78.670  39.910  0.00  0.00    +0.093 C 
ATOM     21  C   UNL     1      40.320  77.358  39.568  0.00  0.00    +0.023 C 
ENDBRANCH  15  20
ENDBRANCH   1  16
BRANCH   9  22
ATOM     22  O   UNL     1      48.610  81.691  44.325  0.00  0.00    -0.468 OA
ATOM     23  C   UNL     1      49.206  80.639  45.016  0.00  0.00    +0.253 C 
ENDBRANCH   9  22
BRANCH   8  24
ATOM     24  O   UNL     1      50.066  83.613  43.016  0.00  0.00    -0.468 OA
ATOM     25  C   UNL     1      51.031  84.362  42.313  0.00  0.00    +0.253 C 
ENDBRANCH   8  24
BRANCH  14  26
ATOM     26  O   UNL     1      44.283  77.508  40.505  0.00  0.00    -0.452 OA
BRANCH  26  27
ATOM     27  C   UNL     1      44.780  76.678  41.499  0.00  0.00    +0.317 C 
ATOM     28  O   UNL     1      45.597  75.765  41.186  0.00  0.00    -0.250 OA
ATOM     29  C   UNL     1      44.352  76.868  42.915  0.00  0.00    +0.121 C 
ENDBRANCH  26  27
ENDBRANCH  14  26
TORSDOF 7
