REMARK  Name = Benznidazole
REMARK  4 active torsions:
REMARK  status: ('A' for Active; 'I' for Inactive)
REMARK    1  A    between atoms: C_4  and  C_7
REMARK    2  A    between atoms: C_7  and  N_8
REMARK    3  A    between atoms: C_9  and  C_11
REMARK    4  A    between atoms: C_11  and  N_12
REMARK                            x       y       z     vdW  Elec       q    Type
REMARK                         _______ _______ _______ _____ _____    ______ ____
ROOT
ATOM      1  N   UNL     1      47.923  81.064  41.850  0.00  0.00    -0.199 NA
ATOM      2  C   UNL     1      46.889  80.129  41.615  0.00  0.00    +0.265 C 
ATOM      3  O   UNL     1      45.890  80.039  42.403  0.00  0.00    -0.271 OA
ENDROOT
BRANCH   1   4
ATOM      4  C   UNL     1      47.706  82.198  42.715  0.00  0.00    +0.142 C 
BRANCH   4   8
ATOM      5  C   UNL     1      51.032  84.771  43.411  0.00  0.00    -0.000 A 
ATOM      6  C   UNL     1      51.255  83.491  42.935  0.00  0.00    -0.000 A 
ATOM      7  C   UNL     1      50.211  82.635  42.711  0.00  0.00    -0.003 A 
ATOM      8  C   UNL     1      48.911  83.015  42.947  0.00  0.00    -0.001 A 
ATOM      9  C   UNL     1      48.726  84.319  43.429  0.00  0.00    -0.003 A 
ATOM     10  C   UNL     1      49.763  85.183  43.659  0.00  0.00    -0.000 A 
ENDBRANCH   4   8
ENDBRANCH   1   4
BRANCH   2  11
ATOM     11  C   UNL     1      46.974  79.236  40.413  0.00  0.00    +0.196 C 
BRANCH  11  12
ATOM     12  N   UNL     1      45.712  79.218  39.724  0.00  0.00    -0.282 N 
ATOM     13  C   UNL     1      44.908  78.145  39.647  0.00  0.00    +0.100 A 
ATOM     14  C   UNL     1      43.811  78.503  38.919  0.00  0.00    +0.121 A 
ATOM     15  N   UNL     1      43.935  79.785  38.550  0.00  0.00    -0.204 NA
ATOM     16  C   UNL     1      45.128  80.212  39.063  0.00  0.00    +0.293 A 
ATOM     17  N   UNL     1      45.602  81.539  38.860  0.00  0.00    +0.093 N 
ATOM     18  O   UNL     1      46.460  82.067  39.575  0.00  0.00    -0.123 OA
ATOM     19  O   UNL     1      45.117  82.330  37.819  0.00  0.00    -0.123 OA
ENDBRANCH  11  12
ENDBRANCH   2  11
TORSDOF 4
