REMARK  Name = Benzthiazide
REMARK  5 active torsions:
REMARK  status: ('A' for Active; 'I' for Inactive)
REMARK    1  A    between atoms: C_4  and  C_7
REMARK    2  A    between atoms: C_7  and  S_8
REMARK    3  A    between atoms: S_8  and  C_9
REMARK    4  A    between atoms: C_9  and  C_10
REMARK    5  A    between atoms: C_17  and  S_23
REMARK                            x       y       z     vdW  Elec       q    Type
REMARK                         _______ _______ _______ _____ _____    ______ ____
ROOT
ATOM      1  C   UNL     1      46.733  80.713  41.324  0.00  0.00    +0.161 C 
ATOM      2  N   UNL     1      46.525  81.439  40.293  0.00  0.00    -0.115 NA
ATOM      3  S   UNL     1      45.286  81.058  39.172  0.00  0.00    +0.103 S 
ATOM      4  O   UNL     1      45.859  80.725  37.809  0.00  0.00    -0.146 OA
ATOM      5  O   UNL     1      44.298  82.187  39.093  0.00  0.00    -0.146 OA
ATOM      6  C   UNL     1      44.483  79.600  39.742  0.00  0.00    +0.146 A 
ATOM      7  C   UNL     1      43.437  79.070  39.022  0.00  0.00    +0.043 A 
ATOM      8  C   UNL     1      42.808  77.948  39.446  0.00  0.00    +0.137 A 
ATOM      9  C   UNL     1      43.237  77.343  40.620  0.00  0.00    +0.078 A 
ATOM     10  C   UNL     1      44.282  77.867  41.344  0.00  0.00    +0.031 A 
ATOM     11  C   UNL     1      44.922  79.023  40.898  0.00  0.00    +0.092 A 
ATOM     12  N   UNL     1      45.999  79.548  41.664  0.00  0.00    -0.194 NA
ATOM     13 CL   UNL     1      42.386  75.881  41.133  0.00  0.00    -0.081 Cl
ENDROOT
BRANCH   8  14
ATOM     14  S   UNL     1      41.470  77.273  38.521  0.00  0.00    +0.094 S 
ATOM     15  O   UNL     1      40.203  77.520  39.283  0.00  0.00    -0.150 OA
ATOM     16  O   UNL     1      41.712  75.810  38.299  0.00  0.00    -0.150 OA
ATOM     17  N   UNL     1      41.462  78.060  36.984  0.00  0.00    +0.039 NA
ENDBRANCH   8  14
BRANCH   1  18
ATOM     18  C   UNL     1      47.826  81.115  42.242  0.00  0.00    +0.122 C 
BRANCH  18  19
ATOM     19  S   UNL     1      49.347  81.176  41.226  0.00  0.00    -0.127 S 
BRANCH  19  20
ATOM     20  C   UNL     1      49.823  82.866  40.850  0.00  0.00    +0.084 C 
BRANCH  20  24
ATOM     21  C   UNL     1      49.541  85.155  44.443  0.00  0.00    -0.000 A 
ATOM     22  C   UNL     1      50.741  84.624  44.062  0.00  0.00    -0.000 A 
ATOM     23  C   UNL     1      50.806  83.899  42.916  0.00  0.00    -0.003 A 
ATOM     24  C   UNL     1      49.712  83.671  42.112  0.00  0.00    -0.011 A 
ATOM     25  C   UNL     1      48.497  84.193  42.471  0.00  0.00    -0.003 A 
ATOM     26  C   UNL     1      48.420  84.940  43.648  0.00  0.00    -0.000 A 
ENDBRANCH  20  24
ENDBRANCH  19  20
ENDBRANCH  18  19
ENDBRANCH   1  18
TORSDOF 5
