REMARK  Name = Benzbromarone
REMARK  3 active torsions:
REMARK  status: ('A' for Active; 'I' for Inactive)
REMARK    1  A    between atoms: C_2  and  C_3
REMARK    2  A    between atoms: C_4  and  C_12
REMARK    3  A    between atoms: C_12  and  C_14
REMARK                            x       y       z     vdW  Elec       q    Type
REMARK                         _______ _______ _______ _____ _____    ______ ____
ROOT
ATOM      1  C   UNL     1      43.990  79.684  39.130  0.00  0.00    +0.126 A 
ATOM      2  C   UNL     1      45.088  80.092  39.893  0.00  0.00    +0.072 A 
ATOM      3  C   UNL     1      45.248  79.155  40.880  0.00  0.00    +0.040 A 
ATOM      4  C   UNL     1      46.098  78.950  41.943  0.00  0.00    +0.003 A 
ATOM      5  C   UNL     1      45.986  77.858  42.794  0.00  0.00    +0.000 A 
ATOM      6  C   UNL     1      45.000  76.921  42.602  0.00  0.00    +0.003 A 
ATOM      7  C   UNL     1      44.145  77.116  41.547  0.00  0.00    +0.037 A 
ATOM      8  C   UNL     1      44.245  78.201  40.693  0.00  0.00    +0.145 A 
ATOM      9  O   UNL     1      43.553  78.579  39.654  0.00  0.00    -0.458 OA
ENDROOT
BRANCH   1  11
ATOM     10  C   UNL     1      42.471  79.500  37.212  0.00  0.00    +0.008 C 
ATOM     11  C   UNL     1      43.429  80.401  37.931  0.00  0.00    +0.065 C 
ENDBRANCH   1  11
BRANCH   2  12
ATOM     12  C   UNL     1      45.844  81.282  39.681  0.00  0.00    +0.198 C 
ATOM     13  O   UNL     1      45.575  81.887  38.554  0.00  0.00    -0.286 OA
BRANCH  12  14
ATOM     14  C   UNL     1      46.845  81.904  40.508  0.00  0.00    +0.040 A 
ATOM     15  C   UNL     1      48.167  81.543  40.474  0.00  0.00    +0.013 A 
ATOM     16  C   UNL     1      49.123  82.158  41.284  0.00  0.00    +0.074 A 
ATOM     17  C   UNL     1      48.763  83.154  42.149  0.00  0.00    +0.208 A 
ATOM     18  C   UNL     1      47.431  83.545  42.209  0.00  0.00    +0.074 A 
ATOM     19  C   UNL     1      46.505  82.915  41.392  0.00  0.00    +0.013 A 
ATOM     20 BR   UNL     1      46.936  84.935  43.421  0.00  0.00    -0.046 Br
ATOM     21  O   UNL     1      49.720  83.766  42.957  0.00  0.00    -0.286 OA
ATOM     22 BR   UNL     1      50.953  81.629  41.205  0.00  0.00    -0.046 Br
ENDBRANCH  12  14
ENDBRANCH   2  12
TORSDOF 3
