REMARK  Name = Bepotastine
REMARK  8 active torsions:
REMARK  status: ('A' for Active; 'I' for Inactive)
REMARK    1  A    between atoms: N_3  and  C_22
REMARK    2  A    between atoms: C_6  and  O_7
REMARK    3  A    between atoms: O_7  and  C_8
REMARK    4  A    between atoms: C_8  and  C_9
REMARK    5  A    between atoms: C_8  and  C_16
REMARK    6  A    between atoms: C_22  and  C_23
REMARK    7  A    between atoms: C_23  and  C_24
REMARK    8  A    between atoms: C_24  and  C_25
REMARK                            x       y       z     vdW  Elec       q    Type
REMARK                         _______ _______ _______ _____ _____    ______ ____
ROOT
ATOM      1  C   UNL     1      47.857  81.244  41.974  0.00  0.00    +0.177 C 
ENDROOT
BRANCH   1   2
ATOM      2  C   UNL     1      48.681  82.254  42.629  0.00  0.00    +0.010 A 
ATOM      3  C   UNL     1      50.051  82.146  42.819  0.00  0.00    -0.001 A 
ATOM      4  C   UNL     1      50.763  83.154  43.451  0.00  0.00    +0.011 A 
ATOM      5  C   UNL     1      50.135  84.284  43.906  0.00  0.00    +0.058 A 
ATOM      6  C   UNL     1      48.773  84.402  43.723  0.00  0.00    +0.011 A 
ATOM      7  C   UNL     1      48.081  83.400  43.097  0.00  0.00    -0.001 A 
ATOM      8 CL   UNL     1      50.978  85.574  44.703  0.00  0.00    -0.082 Cl
ENDBRANCH   1   2
BRANCH   1   9
ATOM      9  C   UNL     1      48.769  80.200  41.392  0.00  0.00    +0.090 A 
ATOM     10  C   UNL     1      49.010  79.070  42.172  0.00  0.00    +0.018 A 
ATOM     11  C   UNL     1      49.837  78.087  41.681  0.00  0.00    +0.003 A 
ATOM     12  C   UNL     1      50.384  78.286  40.426  0.00  0.00    +0.021 A 
ATOM     13  C   UNL     1      50.111  79.421  39.697  0.00  0.00    +0.099 A 
ATOM     14  N   UNL     1      49.302  80.374  40.188  0.00  0.00    -0.245 NA
ENDBRANCH   1   9
BRANCH   1  15
ATOM     15  O   UNL     1      47.056  81.714  40.968  0.00  0.00    -0.348 OA
BRANCH  15  21
ATOM     16  C   UNL     1      45.547  79.832  41.139  0.00  0.00    +0.047 C 
ATOM     17  C   UNL     1      44.267  79.533  40.412  0.00  0.00    +0.075 C 
ATOM     18  N   UNL     1      44.448  79.040  39.061  0.00  0.00    -0.273 NA
ATOM     19  C   UNL     1      45.415  79.755  38.318  0.00  0.00    +0.075 C 
ATOM     20  C   UNL     1      45.735  81.066  39.061  0.00  0.00    +0.047 C 
ATOM     21  C   UNL     1      46.511  80.633  40.287  0.00  0.00    +0.119 C 
BRANCH  18  22
ATOM     22  C   UNL     1      43.155  79.099  38.434  0.00  0.00    +0.073 C 
BRANCH  22  23
ATOM     23  C   UNL     1      42.270  77.949  38.769  0.00  0.00    +0.029 C 
BRANCH  23  24
ATOM     24  C   UNL     1      41.093  77.917  37.782  0.00  0.00    +0.115 C 
BRANCH  24  25
ATOM     25  C   UNL     1      40.148  76.871  38.225  0.00  0.00    +0.365 C 
ATOM     26  O   UNL     1      39.110  76.657  37.557  0.00  0.00    -0.246 OA
ATOM     27  O   UNL     1      40.394  76.126  39.367  0.00  0.00    -0.246 OA
ENDBRANCH  24  25
ENDBRANCH  23  24
ENDBRANCH  22  23
ENDBRANCH  18  22
ENDBRANCH  15  21
ENDBRANCH   1  15
TORSDOF 8
