REMARK  Name = Berotralstat
REMARK  11 active torsions:
REMARK  status: ('A' for Active; 'I' for Inactive)
REMARK    1  A    between atoms: C_3  and  C_4
REMARK    2  A    between atoms: C_4  and  N_5
REMARK    3  A    between atoms: N_5  and  C_6
REMARK    4  A    between atoms: C_6  and  C_7
REMARK    5  A    between atoms: C_6  and  C_34
REMARK    6  A    between atoms: C_9  and  N_14
REMARK    7  A    between atoms: C_15  and  C_17
REMARK    8  A    between atoms: C_19  and  C_30
REMARK    9  A    between atoms: N_21  and  C_22
REMARK   10  A    between atoms: C_26  and  C_28
REMARK   11  A    between atoms: C_38  and  C_40
REMARK                            x       y       z     vdW  Elec       q    Type
REMARK                         _______ _______ _______ _____ _____    ______ ____
ROOT
ATOM      1  C   UNL     1      43.921  79.227  39.800  0.00  0.00    -0.001 A 
ATOM      2  C   UNL     1      44.994  79.945  40.409  0.00  0.00    +0.016 A 
ATOM      3  C   UNL     1      45.527  80.967  39.668  0.00  0.00    +0.101 A 
ATOM      4  C   UNL     1      45.106  81.320  38.454  0.00  0.00    +0.155 A 
ATOM      5  C   UNL     1      44.048  80.631  37.818  0.00  0.00    +0.031 A 
ATOM      6  C   UNL     1      43.530  79.593  38.594  0.00  0.00    -0.000 A 
ATOM      7  F   UNL     1      45.652  82.347  37.715  0.00  0.00    -0.203 F 
ENDROOT
BRANCH   3   8
ATOM      8  N   UNL     1      46.724  81.638  40.156  0.00  0.00    -0.172 NA
ATOM      9  C   UNL     1      47.431  80.997  41.302  0.00  0.00    +0.287 C 
ATOM     10  O   UNL     1      46.926  79.919  41.566  0.00  0.00    -0.266 OA
BRANCH   9  11
ATOM     11  C   UNL     1      48.531  81.698  41.887  0.00  0.00    +0.139 A 
ATOM     12  C   UNL     1      48.470  83.071  42.157  0.00  0.00    +0.049 A 
ATOM     13  C   UNL     1      49.653  83.470  42.722  0.00  0.00    +0.174 A 
ATOM     14  N   UNL     1      50.416  82.383  42.792  0.00  0.00    -0.161 NA
ATOM     15  N   UNL     1      49.753  81.302  42.294  0.00  0.00    -0.225 N 
BRANCH  15  16
ATOM     16  C   UNL     1      50.377  80.029  42.238  0.00  0.00    +0.083 A 
ATOM     17  C   UNL     1      50.432  79.377  41.048  0.00  0.00    +0.019 A 
ATOM     18  C   UNL     1      50.974  78.128  40.773  0.00  0.00    +0.001 A 
ATOM     19  C   UNL     1      51.531  77.467  41.915  0.00  0.00    -0.003 A 
ATOM     20  C   UNL     1      51.496  78.077  43.099  0.00  0.00    -0.002 A 
ATOM     21  C   UNL     1      50.929  79.365  43.307  0.00  0.00    +0.016 A 
BRANCH  20  22
ATOM     22  C   UNL     1      52.092  77.337  44.271  0.00  0.00    +0.136 C 
ATOM     23  N   UNL     1      53.126  78.187  44.839  0.00  0.00    -0.126 NA
ENDBRANCH  20  22
ENDBRANCH  15  16
BRANCH  13  24
ATOM     24  C   UNL     1      49.980  84.896  43.151  0.00  0.00    +0.437 C 
ATOM     25  F   UNL     1      48.882  85.428  43.797  0.00  0.00    -0.164 F 
ATOM     26  F   UNL     1      50.988  84.827  44.111  0.00  0.00    -0.164 F 
ATOM     27  F   UNL     1      50.446  85.619  42.101  0.00  0.00    -0.164 F 
ENDBRANCH  13  24
ENDBRANCH   9  11
ENDBRANCH   3   8
BRANCH   1  28
ATOM     28  C   UNL     1      43.261  78.160  40.652  0.00  0.00    +0.117 C 
BRANCH  28  29
ATOM     29  C   UNL     1      42.306  77.514  39.682  0.00  0.00    -0.002 A 
ATOM     30  C   UNL     1      42.718  76.478  38.904  0.00  0.00    -0.003 A 
ATOM     31  C   UNL     1      41.913  75.891  37.907  0.00  0.00    +0.000 A 
ATOM     32  C   UNL     1      40.641  76.414  37.729  0.00  0.00    +0.010 A 
ATOM     33  C   UNL     1      40.183  77.479  38.516  0.00  0.00    +0.068 A 
ATOM     34  C   UNL     1      41.039  78.015  39.495  0.00  0.00    +0.008 A 
BRANCH  33  35
ATOM     35  C   UNL     1      38.929  77.999  38.294  0.00  0.00    +0.100 C 
ATOM     36  N   UNL     1      37.760  78.469  38.070  0.00  0.00    -0.191 NA
ENDBRANCH  33  35
ENDBRANCH  28  29
BRANCH  28  37
ATOM     37  N   UNL     1      44.095  77.410  41.428  0.00  0.00    -0.211 NA
BRANCH  37  38
ATOM     38  C   UNL     1      43.938  76.913  42.697  0.00  0.00    +0.089 C 
BRANCH  38  41
ATOM     39  C   UNL     1      45.879  75.381  43.463  0.00  0.00    +0.001 C 
ATOM     40  C   UNL     1      45.619  74.980  42.027  0.00  0.00    +0.001 C 
ATOM     41  C   UNL     1      44.524  75.492  42.858  0.00  0.00    +0.017 C 
ENDBRANCH  38  41
ENDBRANCH  37  38
ENDBRANCH  28  37
ENDBRANCH   1  28
TORSDOF 11
