REMARK  Name = Bestatin
REMARK  8 active torsions:
REMARK  status: ('A' for Active; 'I' for Inactive)
REMARK    1  A    between atoms: CG_2  and  CB_4
REMARK    2  A    between atoms: CB_4  and  CA_5
REMARK    3  A    between atoms: CA_5  and  C_6
REMARK    4  A    between atoms: CA_5  and  N_9
REMARK    5  A    between atoms: C_10  and  C_12
REMARK    6  A    between atoms: C_12  and  C_13
REMARK    7  A    between atoms: C_13  and  C_14
REMARK    8  A    between atoms: C_14  and  C_15
REMARK                            x       y       z     vdW  Elec       q    Type
REMARK                         _______ _______ _______ _____ _____    ______ ____
ROOT
ATOM      1  N   LEU A   1      49.312  80.725  41.759  0.00  0.00    -0.193 NA
ATOM      2  C   UNK A   0      48.030  80.566  41.219  0.00  0.00    +0.274 C 
ATOM      3  O   UNK A   0      47.679  81.305  40.240  0.00  0.00    -0.271 OA
ENDROOT
BRANCH   2   4
ATOM      4  C   UNK A   0      47.039  79.585  41.715  0.00  0.00    +0.247 C 
ATOM      5  O   UNK A   0      46.257  80.210  42.705  0.00  0.00    -0.212 OA
BRANCH   4   6
ATOM      6  C   UNK A   0      46.157  79.025  40.623  0.00  0.00    +0.135 C 
ATOM      7  N   UNK A   0      46.856  78.026  39.835  0.00  0.00    -0.129 NA
BRANCH   6   8
ATOM      8  C   UNK A   0      44.911  78.439  41.253  0.00  0.00    +0.048 C 
BRANCH   8   9
ATOM      9  C   UNK A   0      43.847  78.119  40.294  0.00  0.00    -0.021 A 
ATOM     10  C   UNK A   0      43.211  76.892  40.344  0.00  0.00    -0.004 A 
ATOM     11  C   UNK A   0      42.226  76.629  39.424  0.00  0.00    -0.000 A 
ATOM     12  C   UNK A   0      41.850  77.541  38.455  0.00  0.00    -0.000 A 
ATOM     13  C   UNK A   0      42.482  78.763  38.403  0.00  0.00    -0.000 A 
ATOM     14  C   UNK A   0      43.488  79.037  39.340  0.00  0.00    -0.004 A 
ENDBRANCH   8   9
ENDBRANCH   6   8
ENDBRANCH   4   6
ENDBRANCH   2   4
BRANCH   1  15
ATOM     15  CA  LEU A   1      49.837  82.047  42.031  0.00  0.00    +0.198 C 
BRANCH  15  16
ATOM     16  C   LEU A   1      51.123  81.914  42.739  0.00  0.00    +0.384 C 
ATOM     17  O   LEU A   1      52.136  82.492  42.298  0.00  0.00    -0.244 OA
ATOM     18  OXT LEU A   1      51.192  81.150  43.886  0.00  0.00    -0.244 OA
ENDBRANCH  15  16
BRANCH  15  19
ATOM     19  CB  LEU A   1      48.806  82.845  42.807  0.00  0.00    +0.033 C 
BRANCH  19  21
ATOM     20  CD1 LEU A   1      48.039  84.909  43.819  0.00  0.00    +0.000 C 
ATOM     21  CG  LEU A   1      49.208  84.275  43.052  0.00  0.00    +0.002 C 
ATOM     22  CD2 LEU A   1      49.441  85.035  41.788  0.00  0.00    +0.000 C 
ENDBRANCH  19  21
ENDBRANCH  15  19
ENDBRANCH   1  15
TORSDOF 8
