REMARK  Name = Betamethasone
REMARK  2 active torsions:
REMARK  status: ('A' for Active; 'I' for Inactive)
REMARK    1  A    between atoms: C_19  and  C_20
REMARK    2  A    between atoms: C_20  and  C_22
REMARK                            x       y       z     vdW  Elec       q    Type
REMARK                         _______ _______ _______ _____ _____    ______ ____
ROOT
ATOM      1  C   UNL     1      49.716  84.307  44.800  0.00  0.00    +0.003 C 
ATOM      2  C   UNL     1      49.062  84.284  43.477  0.00  0.00    +0.035 C 
ATOM      3  C   UNL     1      47.739  83.560  43.579  0.00  0.00    +0.003 C 
ATOM      4  C   UNL     1      47.989  82.155  43.078  0.00  0.00    +0.006 C 
ATOM      5  C   UNL     1      46.905  81.784  42.098  0.00  0.00    +0.034 C 
ATOM      6  C   UNL     1      45.521  81.945  42.684  0.00  0.00    +0.007 C 
ATOM      7  C   UNL     1      44.571  81.822  41.485  0.00  0.00    +0.023 C 
ATOM      8  C   UNL     1      45.115  80.852  40.504  0.00  0.00    -0.035 C 
ATOM      9  C   UNL     1      44.818  80.996  39.225  0.00  0.00    +0.034 C 
ATOM     10  C   UNL     1      45.299  80.105  38.204  0.00  0.00    +0.195 C 
ATOM     11  O   UNL     1      44.985  80.289  36.998  0.00  0.00    -0.287 OA
ATOM     12  C   UNL     1      46.150  78.998  38.609  0.00  0.00    +0.038 C 
ATOM     13  C   UNL     1      46.434  78.873  39.893  0.00  0.00    -0.017 C 
ATOM     14  C   UNL     1      45.969  79.758  40.968  0.00  0.00    +0.064 C 
ATOM     15  C   UNL     1      47.167  80.365  41.669  0.00  0.00    +0.168 C 
ATOM     16  C   UNL     1      48.390  80.381  40.805  0.00  0.00    +0.182 C 
ATOM     17  C   UNL     1      49.156  81.666  40.921  0.00  0.00    +0.038 C 
ATOM     18  C   UNL     1      49.299  82.129  42.361  0.00  0.00    +0.035 C 
ATOM     19  C   UNL     1      49.739  83.581  42.363  0.00  0.00    +0.180 C 
ATOM     20  O   UNL     1      49.106  84.095  41.171  0.00  0.00    -0.218 OA
ATOM     21  C   UNL     1      50.339  81.276  42.995  0.00  0.00    +0.003 C 
ATOM     22  O   UNL     1      49.195  79.261  40.925  0.00  0.00    -0.220 OA
ATOM     23  F   UNL     1      47.432  79.587  42.778  0.00  0.00    -0.237 F 
ATOM     24  C   UNL     1      45.231  78.897  41.970  0.00  0.00    +0.011 C 
ENDROOT
BRANCH  19  25
ATOM     25  C   UNL     1      51.164  83.811  42.193  0.00  0.00    +0.211 C 
ATOM     26  O   UNL     1      51.765  84.323  43.165  0.00  0.00    -0.291 OA
BRANCH  25  27
ATOM     27  C   UNL     1      52.019  83.525  41.035  0.00  0.00    +0.248 C 
ATOM     28  O   UNL     1      53.293  83.033  41.422  0.00  0.00    -0.212 OA
ENDBRANCH  25  27
ENDBRANCH  19  25
TORSDOF 2
