REMARK  Name = Betamethasone_Benzoate
REMARK  5 active torsions:
REMARK  status: ('A' for Active; 'I' for Inactive)
REMARK    1  A    between atoms: C_19  and  C_20
REMARK    2  A    between atoms: C_19  and  O_24
REMARK    3  A    between atoms: C_20  and  C_22
REMARK    4  A    between atoms: O_24  and  C_25
REMARK    5  A    between atoms: C_25  and  C_27
REMARK                            x       y       z     vdW  Elec       q    Type
REMARK                         _______ _______ _______ _____ _____    ______ ____
ROOT
ATOM      1  C   UNL     1      43.710  80.253  41.855  0.00  0.00    +0.004 C 
ATOM      2  C   UNL     1      44.643  81.169  41.141  0.00  0.00    +0.044 C 
ATOM      3  C   UNL     1      45.370  81.968  42.211  0.00  0.00    +0.004 C 
ATOM      4  C   UNL     1      46.799  81.780  41.900  0.00  0.00    +0.007 C 
ATOM      5  C   UNL     1      47.745  81.849  43.080  0.00  0.00    +0.034 C 
ATOM      6  C   UNL     1      47.680  83.233  43.646  0.00  0.00    +0.007 C 
ATOM      7  C   UNL     1      48.531  84.264  43.008  0.00  0.00    +0.023 C 
ATOM      8  C   UNL     1      49.864  83.706  42.672  0.00  0.00    -0.035 C 
ATOM      9  C   UNL     1      50.711  84.433  41.981  0.00  0.00    +0.034 C 
ATOM     10  C   UNL     1      52.039  83.967  41.601  0.00  0.00    +0.195 C 
ATOM     11  O   UNL     1      52.835  84.669  40.944  0.00  0.00    -0.287 OA
ATOM     12  C   UNL     1      52.388  82.621  42.037  0.00  0.00    +0.038 C 
ATOM     13  C   UNL     1      51.513  81.933  42.731  0.00  0.00    -0.017 C 
ATOM     14  C   UNL     1      50.176  82.368  43.146  0.00  0.00    +0.064 C 
ATOM     15  C   UNL     1      49.117  81.386  42.659  0.00  0.00    +0.168 C 
ATOM     16  C   UNL     1      49.281  81.208  41.204  0.00  0.00    +0.182 C 
ATOM     17  C   UNL     1      48.197  80.435  40.501  0.00  0.00    +0.039 C 
ATOM     18  C   UNL     1      46.878  80.476  41.182  0.00  0.00    +0.043 C 
ATOM     19  C   UNL     1      45.663  80.540  40.259  0.00  0.00    +0.189 C 
ATOM     20  C   UNL     1      46.802  79.253  42.068  0.00  0.00    +0.004 C 
ATOM     21  O   UNL     1      49.415  82.471  40.589  0.00  0.00    -0.220 OA
ATOM     22  F   UNL     1      49.405  80.227  43.398  0.00  0.00    -0.237 F 
ATOM     23  C   UNL     1      50.203  82.335  44.692  0.00  0.00    +0.011 C 
ENDROOT
BRANCH  19  24
ATOM     24  C   UNL     1      46.002  81.384  39.102  0.00  0.00    +0.220 C 
ATOM     25  O   UNL     1      46.117  82.604  39.177  0.00  0.00    -0.290 OA
BRANCH  24  26
ATOM     26  C   UNL     1      46.239  80.834  37.743  0.00  0.00    +0.249 C 
ATOM     27  O   UNL     1      45.268  81.279  36.822  0.00  0.00    -0.212 OA
ENDBRANCH  24  26
ENDBRANCH  19  24
BRANCH  19  28
ATOM     28  O   UNL     1      45.308  79.215  39.872  0.00  0.00    -0.445 OA
BRANCH  28  29
ATOM     29  C   UNL     1      43.986  79.020  39.445  0.00  0.00    +0.341 C 
ATOM     30  O   UNL     1      43.278  79.927  38.938  0.00  0.00    -0.245 OA
BRANCH  29  31
ATOM     31  C   UNL     1      43.350  77.704  39.575  0.00  0.00    +0.076 A 
ATOM     32  C   UNL     1      42.092  77.496  39.064  0.00  0.00    +0.006 A 
ATOM     33  C   UNL     1      41.431  76.287  39.148  0.00  0.00    +0.000 A 
ATOM     34  C   UNL     1      42.072  75.247  39.775  0.00  0.00    +0.000 A 
ATOM     35  C   UNL     1      43.340  75.434  40.297  0.00  0.00    +0.000 A 
ATOM     36  C   UNL     1      43.980  76.650  40.201  0.00  0.00    +0.006 A 
ENDBRANCH  29  31
ENDBRANCH  28  29
ENDBRANCH  19  28
TORSDOF 5
