REMARK  Name = Betaxolol
REMARK  11 active torsions:
REMARK  status: ('A' for Active; 'I' for Inactive)
REMARK    1  A    between atoms: C_2  and  N_4
REMARK    2  A    between atoms: N_4  and  C_5
REMARK    3  A    between atoms: C_5  and  C_6
REMARK    4  A    between atoms: C_6  and  C_7
REMARK    5  A    between atoms: C_7  and  O_8
REMARK    6  A    between atoms: O_8  and  C_9
REMARK    7  A    between atoms: C_12  and  C_15
REMARK    8  A    between atoms: C_15  and  C_16
REMARK    9  A    between atoms: C_16  and  O_17
REMARK   10  A    between atoms: O_17  and  C_18
REMARK   11  A    between atoms: C_18  and  C_19
REMARK                            x       y       z     vdW  Elec       q    Type
REMARK                         _______ _______ _______ _____ _____    ______ ____
ROOT
ATOM      1  C   UNL     1      44.058  78.565  39.459  0.00  0.00    +0.139 A 
ATOM      2  C   UNL     1      44.553  77.973  40.595  0.00  0.00    +0.037 A 
ATOM      3  C   UNL     1      45.668  78.504  41.208  0.00  0.00    -0.001 A 
ATOM      4  C   UNL     1      46.294  79.610  40.709  0.00  0.00    -0.019 A 
ATOM      5  C   UNL     1      45.797  80.195  39.577  0.00  0.00    -0.001 A 
ATOM      6  C   UNL     1      44.676  79.682  38.939  0.00  0.00    +0.037 A 
ENDROOT
BRANCH   1   7
ATOM      7  O   UNL     1      42.919  78.040  38.815  0.00  0.00    -0.473 OA
BRANCH   7   8
ATOM      8  C   UNL     1      41.772  78.836  38.755  0.00  0.00    +0.240 C 
BRANCH   8   9
ATOM      9  C   UNL     1      40.833  78.305  37.713  0.00  0.00    +0.213 C 
ATOM     10  O   UNL     1      39.633  79.053  37.905  0.00  0.00    -0.218 OA
BRANCH   9  11
ATOM     11  C   UNL     1      40.558  76.853  37.886  0.00  0.00    +0.125 C 
BRANCH  11  12
ATOM     12  N   UNL     1      39.550  76.380  37.004  0.00  0.00    -0.217 NA
BRANCH  12  14
ATOM     13  C   UNL     1      39.678  74.103  36.098  0.00  0.00    +0.019 C 
ATOM     14  C   UNL     1      39.236  74.965  37.235  0.00  0.00    +0.073 C 
ATOM     15  C   UNL     1      37.796  74.730  37.577  0.00  0.00    +0.019 C 
ENDBRANCH  12  14
ENDBRANCH  11  12
ENDBRANCH   9  11
ENDBRANCH   8   9
ENDBRANCH   7   8
ENDBRANCH   1   7
BRANCH   4  16
ATOM     16  C   UNL     1      47.493  80.199  41.366  0.00  0.00    +0.058 C 
BRANCH  16  17
ATOM     17  C   UNL     1      47.261  81.642  41.737  0.00  0.00    +0.147 C 
BRANCH  17  18
ATOM     18  O   UNL     1      48.121  82.100  42.639  0.00  0.00    -0.353 OA
BRANCH  18  19
ATOM     19  C   UNL     1      49.286  82.667  42.366  0.00  0.00    +0.142 C 
BRANCH  19  20
ATOM     20  C   UNL     1      49.478  84.136  42.537  0.00  0.00    +0.030 C 
ATOM     21  C   UNL     1      50.765  84.777  42.840  0.00  0.00    +0.003 C 
ATOM     22  C   UNL     1      49.880  84.545  43.983  0.00  0.00    +0.003 C 
ENDBRANCH  19  20
ENDBRANCH  18  19
ENDBRANCH  17  18
ENDBRANCH  16  17
ENDBRANCH   4  16
TORSDOF 11
