REMARK  Name = Beta-carotene
REMARK  10 active torsions:
REMARK  status: ('A' for Active; 'I' for Inactive)
REMARK    1  A    between atoms: C_3  and  C_10
REMARK    2  A    between atoms: C_11  and  C_12
REMARK    3  A    between atoms: C_13  and  C_14
REMARK    4  A    between atoms: C_15  and  C_16
REMARK    5  A    between atoms: C_17  and  C_18
REMARK    6  A    between atoms: C_19  and  C_20
REMARK    7  A    between atoms: C_21  and  C_23
REMARK    8  A    between atoms: C_24  and  C_25
REMARK    9  A    between atoms: C_26  and  C_28
REMARK   10  A    between atoms: C_29  and  C_30
REMARK                            x       y       z     vdW  Elec       q    Type
REMARK                         _______ _______ _______ _____ _____    ______ ____
ROOT
ATOM      1  C   UNL     1      47.870  82.049  40.505  0.00  0.00    -0.000 C 
ATOM      2  C   UNL     1      48.007  82.561  41.735  0.00  0.00    -0.000 C 
ENDROOT
BRANCH   1   4
ATOM      3  C   UNL     1      46.278  81.189  38.853  0.00  0.00    -0.022 C 
ATOM      4  C   UNL     1      46.620  81.437  40.082  0.00  0.00    -0.004 C 
ATOM      5  C   UNL     1      47.177  81.627  37.753  0.00  0.00    +0.031 C 
BRANCH   3   7
ATOM      6  C   UNL     1      44.654  79.492  39.279  0.00  0.00    -0.001 C 
ATOM      7  C   UNL     1      45.059  80.515  38.527  0.00  0.00    -0.004 C 
BRANCH   6   9
ATOM      8  C   UNL     1      42.980  77.816  39.736  0.00  0.00    -0.022 C 
ATOM      9  C   UNL     1      43.447  78.797  39.003  0.00  0.00    -0.004 C 
ATOM     10  C   UNL     1      43.409  77.474  41.099  0.00  0.00    +0.031 C 
BRANCH   8  12
ATOM     11  C   UNL     1      40.721  77.478  38.984  0.00  0.00    -0.005 C 
ATOM     12  C   UNL     1      41.913  76.980  39.110  0.00  0.00    -0.005 C 
BRANCH  11  15
ATOM     13  C   UNL     1      38.631  79.127  38.687  0.00  0.00    +0.026 C 
ATOM     14  C   UNL     1      38.556  77.775  38.079  0.00  0.00    -0.048 C 
ATOM     15  C   UNL     1      39.605  76.941  38.237  0.00  0.00    -0.031 C 
ATOM     16  C   UNL     1      39.452  75.630  37.614  0.00  0.00    +0.018 C 
ATOM     17  C   UNL     1      38.026  75.144  37.895  0.00  0.00    +0.004 C 
ATOM     18  C   UNL     1      36.972  76.018  37.323  0.00  0.00    +0.005 C 
ATOM     19  C   UNL     1      37.341  77.467  37.315  0.00  0.00    +0.022 C 
ATOM     20  C   UNL     1      39.641  75.777  36.111  0.00  0.00    +0.004 C 
ATOM     21  C   UNL     1      40.347  74.523  38.052  0.00  0.00    +0.004 C 
ENDBRANCH  11  15
ENDBRANCH   8  12
ENDBRANCH   6   9
ENDBRANCH   3   7
ENDBRANCH   1   4
BRANCH   2  22
ATOM     22  C   UNL     1      49.266  82.957  42.229  0.00  0.00    -0.004 C 
ATOM     23  C   UNL     1      49.476  83.676  43.351  0.00  0.00    -0.022 C 
ATOM     24  C   UNL     1      48.532  84.764  43.617  0.00  0.00    +0.031 C 
BRANCH  23  25
ATOM     25  C   UNL     1      50.598  83.281  44.166  0.00  0.00    -0.004 C 
ATOM     26  C   UNL     1      50.892  83.444  45.426  0.00  0.00    -0.001 C 
BRANCH  26  27
ATOM     27  C   UNL     1      52.033  82.950  46.089  0.00  0.00    -0.004 C 
ATOM     28  C   UNL     1      52.414  83.205  47.387  0.00  0.00    -0.022 C 
ATOM     29  C   UNL     1      52.268  84.671  47.733  0.00  0.00    +0.031 C 
BRANCH  28  30
ATOM     30  C   UNL     1      52.959  82.175  48.168  0.00  0.00    -0.005 C 
ATOM     31  C   UNL     1      54.075  81.681  48.535  0.00  0.00    -0.005 C 
BRANCH  31  32
ATOM     32  C   UNL     1      54.857  80.888  49.390  0.00  0.00    -0.031 C 
ATOM     33  C   UNL     1      54.394  79.587  49.624  0.00  0.00    -0.048 C 
ATOM     34  C   UNL     1      55.113  78.632  50.495  0.00  0.00    +0.022 C 
ATOM     35  C   UNL     1      56.597  78.708  50.449  0.00  0.00    +0.005 C 
ATOM     36  C   UNL     1      57.058  79.991  49.847  0.00  0.00    +0.004 C 
ATOM     37  C   UNL     1      56.056  81.087  50.214  0.00  0.00    +0.018 C 
ATOM     38  C   UNL     1      55.577  80.913  51.680  0.00  0.00    +0.004 C 
ATOM     39  C   UNL     1      56.788  82.367  50.206  0.00  0.00    +0.004 C 
ATOM     40  C   UNL     1      53.145  79.119  48.998  0.00  0.00    +0.026 C 
ENDBRANCH  31  32
ENDBRANCH  28  30
ENDBRANCH  26  27
ENDBRANCH  23  25
ENDBRANCH   2  22
TORSDOF 10
