REMARK  Name = Betamethasone_Valerate
REMARK  7 active torsions:
REMARK  status: ('A' for Active; 'I' for Inactive)
REMARK    1  A    between atoms: C_2  and  C_3
REMARK    2  A    between atoms: C_3  and  C_4
REMARK    3  A    between atoms: C_4  and  C_5
REMARK    4  A    between atoms: C_5  and  O_7
REMARK    5  A    between atoms: O_7  and  C_8
REMARK    6  A    between atoms: C_8  and  C_31
REMARK    7  A    between atoms: C_31  and  C_33
REMARK                            x       y       z     vdW  Elec       q    Type
REMARK                         _______ _______ _______ _____ _____    ______ ____
ROOT
ATOM      1  C   UNL     1      49.344  82.737  42.560  0.00  0.00    +0.188 C 
ATOM      2  C   UNL     1      48.226  83.203  43.431  0.00  0.00    +0.044 C 
ATOM      3  C   UNL     1      47.027  82.238  43.157  0.00  0.00    +0.004 C 
ATOM      4  C   UNL     1      47.778  81.097  42.620  0.00  0.00    +0.007 C 
ATOM      5  C   UNL     1      48.578  81.858  41.588  0.00  0.00    +0.043 C 
ATOM      6  C   UNL     1      49.325  80.852  40.833  0.00  0.00    +0.039 C 
ATOM      7  C   UNL     1      48.311  80.100  39.993  0.00  0.00    +0.182 C 
ATOM      8  C   UNL     1      47.176  79.487  40.739  0.00  0.00    +0.168 C 
ATOM      9  C   UNL     1      47.151  79.852  42.197  0.00  0.00    +0.034 C 
ATOM     10  C   UNL     1      45.824  79.654  42.854  0.00  0.00    +0.007 C 
ATOM     11  C   UNL     1      44.651  80.307  42.277  0.00  0.00    +0.023 C 
ATOM     12  C   UNL     1      44.924  80.523  40.807  0.00  0.00    -0.035 C 
ATOM     13  C   UNL     1      44.276  81.538  40.292  0.00  0.00    +0.034 C 
ATOM     14  C   UNL     1      44.396  81.923  38.891  0.00  0.00    +0.195 C 
ATOM     15  O   UNL     1      43.783  82.882  38.406  0.00  0.00    -0.287 OA
ATOM     16  C   UNL     1      45.305  81.066  38.129  0.00  0.00    +0.038 C 
ATOM     17  C   UNL     1      45.940  80.060  38.659  0.00  0.00    -0.017 C 
ATOM     18  C   UNL     1      45.819  79.678  40.053  0.00  0.00    +0.064 C 
ATOM     19  C   UNL     1      45.060  78.317  39.996  0.00  0.00    +0.011 C 
ATOM     20  F   UNL     1      47.371  78.115  40.648  0.00  0.00    -0.237 F 
ATOM     21  O   UNL     1      49.094  79.132  39.306  0.00  0.00    -0.220 OA
ATOM     22  C   UNL     1      47.843  82.780  40.707  0.00  0.00    +0.004 C 
ATOM     23  C   UNL     1      48.402  83.155  44.904  0.00  0.00    +0.004 C 
ENDROOT
BRANCH   1  24
ATOM     24  C   UNL     1      49.991  83.876  41.840  0.00  0.00    +0.220 C 
ATOM     25  O   UNL     1      49.422  84.975  41.836  0.00  0.00    -0.290 OA
BRANCH  24  26
ATOM     26  C   UNL     1      51.259  83.808  41.120  0.00  0.00    +0.249 C 
ATOM     27  O   UNL     1      51.814  84.981  40.700  0.00  0.00    -0.212 OA
ENDBRANCH  24  26
ENDBRANCH   1  24
BRANCH   1  28
ATOM     28  O   UNL     1      50.285  81.968  43.248  0.00  0.00    -0.449 OA
BRANCH  28  29
ATOM     29  C   UNL     1      51.540  81.602  42.886  0.00  0.00    +0.317 C 
ATOM     30  O   UNL     1      52.321  82.461  42.411  0.00  0.00    -0.250 OA
BRANCH  29  31
ATOM     31  C   UNL     1      52.064  80.212  43.019  0.00  0.00    +0.110 C 
BRANCH  31  32
ATOM     32  C   UNL     1      51.702  79.390  41.802  0.00  0.00    +0.012 C 
BRANCH  32  34
ATOM     33  C   UNL     1      51.105  77.004  42.316  0.00  0.00    +0.000 C 
ATOM     34  C   UNL     1      52.170  77.972  41.915  0.00  0.00    +0.001 C 
ENDBRANCH  32  34
ENDBRANCH  31  32
ENDBRANCH  29  31
ENDBRANCH  28  29
ENDBRANCH   1  28
TORSDOF 7
