REMARK  Name = Betamethasone_butyrate_propion
REMARK  9 active torsions:
REMARK  status: ('A' for Active; 'I' for Inactive)
REMARK    1  A    between atoms: C_2  and  C_3
REMARK    2  A    between atoms: C_3  and  C_4
REMARK    3  A    between atoms: C_4  and  O_6
REMARK    4  A    between atoms: O_6  and  C_7
REMARK    5  A    between atoms: C_7  and  C_30
REMARK    6  A    between atoms: C_30  and  C_32
REMARK    7  A    between atoms: C_32  and  O_33
REMARK    8  A    between atoms: O_33  and  C_34
REMARK    9  A    between atoms: C_34  and  C_36
REMARK                            x       y       z     vdW  Elec       q    Type
REMARK                         _______ _______ _______ _____ _____    ______ ____
ROOT
ATOM      1  C   UNL     1      44.851  80.107  40.541  0.00  0.00    +0.190 C 
ATOM      2  C   UNL     1      44.031  81.214  41.013  0.00  0.00    +0.044 C 
ATOM      3  C   UNL     1      44.853  82.092  41.976  0.00  0.00    +0.004 C 
ATOM      4  C   UNL     1      46.214  81.728  41.536  0.00  0.00    +0.007 C 
ATOM      5  C   UNL     1      46.072  80.204  41.471  0.00  0.00    +0.043 C 
ATOM      6  C   UNL     1      47.325  79.717  40.883  0.00  0.00    +0.039 C 
ATOM      7  C   UNL     1      48.538  80.066  41.696  0.00  0.00    +0.182 C 
ATOM      8  C   UNL     1      48.386  81.184  42.669  0.00  0.00    +0.168 C 
ATOM      9  C   UNL     1      47.388  82.222  42.240  0.00  0.00    +0.034 C 
ATOM     10  C   UNL     1      47.150  83.165  43.406  0.00  0.00    +0.007 C 
ATOM     11  C   UNL     1      48.459  83.955  43.588  0.00  0.00    +0.023 C 
ATOM     12  C   UNL     1      49.510  83.294  42.710  0.00  0.00    -0.035 C 
ATOM     13  C   UNL     1      50.165  84.013  41.839  0.00  0.00    +0.034 C 
ATOM     14  C   UNL     1      51.183  83.445  40.964  0.00  0.00    +0.195 C 
ATOM     15  O   UNL     1      51.820  84.106  40.129  0.00  0.00    -0.287 OA
ATOM     16  C   UNL     1      51.421  82.018  41.125  0.00  0.00    +0.038 C 
ATOM     17  C   UNL     1      50.755  81.311  42.003  0.00  0.00    -0.017 C 
ATOM     18  C   UNL     1      49.733  81.859  42.888  0.00  0.00    +0.064 C 
ATOM     19  C   UNL     1      50.170  81.594  44.358  0.00  0.00    +0.011 C 
ATOM     20  F   UNL     1      48.078  80.624  43.895  0.00  0.00    -0.237 F 
ATOM     21  O   UNL     1      49.073  78.918  42.335  0.00  0.00    -0.220 OA
ATOM     22  C   UNL     1      45.647  79.602  42.771  0.00  0.00    +0.004 C 
ATOM     23  C   UNL     1      43.435  82.147  40.011  0.00  0.00    +0.004 C 
ENDROOT
BRANCH   1  24
ATOM     24  C   UNL     1      45.229  79.985  39.138  0.00  0.00    +0.230 C 
ATOM     25  O   UNL     1      45.904  80.870  38.656  0.00  0.00    -0.288 OA
BRANCH  24  26
ATOM     26  C   UNL     1      44.917  78.931  38.184  0.00  0.00    +0.276 C 
BRANCH  26  27
ATOM     27  O   UNL     1      43.639  79.139  37.620  0.00  0.00    -0.440 OA
BRANCH  27  28
ATOM     28  C   UNL     1      42.646  78.202  37.576  0.00  0.00    +0.317 C 
ATOM     29  O   UNL     1      42.729  77.154  38.230  0.00  0.00    -0.250 OA
BRANCH  28  30
ATOM     30  C   UNL     1      41.451  78.448  36.731  0.00  0.00    +0.110 C 
ATOM     31  C   UNL     1      40.220  78.758  37.526  0.00  0.00    +0.012 C 
ENDBRANCH  28  30
ENDBRANCH  27  28
ENDBRANCH  26  27
ENDBRANCH  24  26
ENDBRANCH   1  24
BRANCH   1  32
ATOM     32  O   UNL     1      44.364  78.791  40.881  0.00  0.00    -0.448 OA
BRANCH  32  33
ATOM     33  C   UNL     1      45.081  77.644  40.795  0.00  0.00    +0.317 C 
ATOM     34  O   UNL     1      45.772  77.511  39.760  0.00  0.00    -0.250 OA
BRANCH  33  35
ATOM     35  C   UNL     1      44.992  76.667  41.905  0.00  0.00    +0.110 C 
BRANCH  35  37
ATOM     36  C   UNL     1      43.675  74.994  43.091  0.00  0.00    +0.001 C 
ATOM     37  C   UNL     1      43.737  75.832  41.828  0.00  0.00    +0.012 C 
ENDBRANCH  35  37
ENDBRANCH  33  35
ENDBRANCH  32  33
ENDBRANCH   1  32
TORSDOF 9
