REMARK  Name = Beta-acetyldigoxin
REMARK  9 active torsions:
REMARK  status: ('A' for Active; 'I' for Inactive)
REMARK    1  A    between atoms: C_3  and  O_37
REMARK    2  A    between atoms: C_6  and  O_8
REMARK    3  A    between atoms: O_8  and  C_9
REMARK    4  A    between atoms: C_25  and  C_26
REMARK    5  A    between atoms: O_37  and  C_38
REMARK    6  A    between atoms: C_41  and  O_45
REMARK    7  A    between atoms: O_45  and  C_46
REMARK    8  A    between atoms: C_49  and  O_53
REMARK    9  A    between atoms: O_53  and  C_54
REMARK                            x       y       z     vdW  Elec       q    Type
REMARK                         _______ _______ _______ _____ _____    ______ ____
ROOT
ATOM      1  C   UNL     1      44.703  77.809  38.107  0.00  0.00    +0.035 C 
ATOM      2  C   UNL     1      44.226  77.440  39.489  0.00  0.00    +0.147 C 
ATOM      3  C   UNL     1      42.837  78.016  39.798  0.00  0.00    +0.175 C 
ATOM      4  C   UNL     1      42.885  78.837  41.071  0.00  0.00    +0.186 C 
ATOM      5  C   UNL     1      44.058  79.796  41.064  0.00  0.00    +0.097 C 
ATOM      6  C   UNL     1      45.261  79.263  40.445  0.00  0.00    +0.238 C 
ATOM      7  O   UNL     1      45.137  77.841  40.474  0.00  0.00    -0.330 OA
ATOM      8  O   UNL     1      42.902  78.037  42.211  0.00  0.00    -0.220 OA
ENDROOT
BRANCH   6   9
ATOM      9  O   UNL     1      46.493  79.548  40.858  0.00  0.00    -0.333 OA
BRANCH   9  10
ATOM     10  C   UNL     1      46.986  80.820  40.781  0.00  0.00    +0.118 C 
ATOM     11  C   UNL     1      48.508  80.821  40.590  0.00  0.00    +0.030 C 
ATOM     12  C   UNL     1      48.928  82.210  40.351  0.00  0.00    +0.002 C 
ATOM     13  C   UNL     1      48.538  83.227  41.364  0.00  0.00    +0.000 C 
ATOM     14  C   UNL     1      47.130  82.986  41.868  0.00  0.00    +0.002 C 
ATOM     15  C   UNL     1      46.835  81.543  42.141  0.00  0.00    +0.030 C 
ATOM     16  C   UNL     1      46.712  83.939  42.923  0.00  0.00    +0.000 C 
ATOM     17  C   UNL     1      47.846  84.707  43.569  0.00  0.00    +0.002 C 
ATOM     18  C   UNL     1      48.956  83.705  43.785  0.00  0.00    +0.028 C 
ATOM     19  C   UNL     1      49.573  83.341  42.441  0.00  0.00    +0.005 C 
ATOM     20  C   UNL     1      50.366  82.094  42.695  0.00  0.00    +0.033 C 
ATOM     21  C   UNL     1      51.525  82.488  43.634  0.00  0.00    +0.154 C 
ATOM     22  C   UNL     1      50.968  82.932  44.932  0.00  0.00    +0.057 C 
ATOM     23  C   UNL     1      50.028  84.125  44.668  0.00  0.00    +0.129 C 
ATOM     24  C   UNL     1      49.672  84.486  46.068  0.00  0.00    +0.031 C 
ATOM     25  C   UNL     1      51.018  84.413  46.777  0.00  0.00    +0.007 C 
ATOM     26  C   UNL     1      51.948  83.677  45.796  0.00  0.00    +0.027 C 
ATOM     27  O   UNL     1      50.804  85.138  44.113  0.00  0.00    -0.226 OA
ATOM     28  C   UNL     1      50.309  81.855  45.720  0.00  0.00    +0.005 C 
ATOM     29  O   UNL     1      52.218  81.273  43.853  0.00  0.00    -0.223 OA
ATOM     30  C   UNL     1      48.477  84.569  40.645  0.00  0.00    +0.000 C 
BRANCH  26  31
ATOM     31  C   UNL     1      53.018  82.935  46.414  0.00  0.00    +0.005 C 
ATOM     32  C   UNL     1      54.174  83.498  46.833  0.00  0.00    +0.077 C 
ATOM     33  C   UNL     1      55.047  82.489  47.412  0.00  0.00    +0.341 C 
ATOM     34  O   UNL     1      56.197  82.646  47.901  0.00  0.00    -0.245 OA
ATOM     35  O   UNL     1      54.403  81.296  47.344  0.00  0.00    -0.441 OA
ATOM     36  C   UNL     1      53.135  81.509  46.736  0.00  0.00    +0.231 C 
ENDBRANCH  26  31
ENDBRANCH   9  10
ENDBRANCH   6   9
BRANCH   3  37
ATOM     37  O   UNL     1      42.294  78.667  38.743  0.00  0.00    -0.328 OA
BRANCH  37  38
ATOM     38  C   UNL     1      41.575  77.908  37.825  0.00  0.00    +0.238 C 
ATOM     39  C   UNL     1      40.142  78.239  37.779  0.00  0.00    +0.097 C 
ATOM     40  C   UNL     1      39.176  77.247  37.235  0.00  0.00    +0.186 C 
ATOM     41  C   UNL     1      39.706  75.888  37.176  0.00  0.00    +0.175 C 
ATOM     42  C   UNL     1      40.955  75.621  37.938  0.00  0.00    +0.147 C 
ATOM     43  O   UNL     1      41.763  76.612  38.229  0.00  0.00    -0.330 OA
ATOM     44  C   UNL     1      40.528  74.972  39.282  0.00  0.00    +0.035 C 
ATOM     45  O   UNL     1      38.018  77.280  38.073  0.00  0.00    -0.220 OA
BRANCH  41  46
ATOM     46  O   UNL     1      39.868  75.342  35.900  0.00  0.00    -0.328 OA
BRANCH  46  47
ATOM     47  C   UNL     1      38.757  74.748  35.394  0.00  0.00    +0.238 C 
ATOM     48  C   UNL     1      38.988  74.307  33.953  0.00  0.00    +0.098 C 
ATOM     49  C   UNL     1      37.579  73.980  33.463  0.00  0.00    +0.199 C 
ATOM     50  C   UNL     1      37.208  72.721  34.228  0.00  0.00    +0.226 C 
ATOM     51  C   UNL     1      37.303  73.013  35.700  0.00  0.00    +0.160 C 
ATOM     52  O   UNL     1      38.495  73.591  36.101  0.00  0.00    -0.329 OA
ATOM     53  C   UNL     1      37.170  71.678  36.416  0.00  0.00    +0.036 C 
ATOM     54  O   UNL     1      37.583  73.840  32.110  0.00  0.00    -0.219 OA
BRANCH  50  55
ATOM     55  O   UNL     1      38.173  71.749  33.854  0.00  0.00    -0.447 OA
BRANCH  55  56
ATOM     56  C   UNL     1      37.781  70.668  33.081  0.00  0.00    +0.318 C 
ATOM     57  O   UNL     1      38.583  69.743  32.876  0.00  0.00    -0.250 OA
ATOM     58  C   UNL     1      36.408  70.559  32.475  0.00  0.00    +0.121 C 
ENDBRANCH  55  56
ENDBRANCH  50  55
ENDBRANCH  46  47
ENDBRANCH  41  46
ENDBRANCH  37  38
ENDBRANCH   3  37
TORSDOF 9
