REMARK  Name = BETRIXABAN
REMARK  5 active torsions:
REMARK  status: ('A' for Active; 'I' for Inactive)
REMARK    1  A    between atoms: C_4  and  C_6
REMARK    2  A    between atoms: C_9  and  C_12
REMARK    3  A    between atoms: N_14  and  C_15
REMARK    4  A    between atoms: C_16  and  C_23
REMARK    5  A    between atoms: C_18  and  O_21
REMARK                            x       y       z     vdW  Elec       q    Type
REMARK                         _______ _______ _______ _____ _____    ______ ____
ROOT
ATOM      1  C   UNL     1      42.953  76.615  40.649  0.00  0.00    +0.078 A 
ATOM      2  C   UNL     1      43.991  77.329  41.237  0.00  0.00    +0.074 A 
ATOM      3  C   UNL     1      44.494  76.839  42.419  0.00  0.00    +0.043 A 
ATOM      4  C   UNL     1      44.018  75.698  43.020  0.00  0.00    +0.139 A 
ATOM      5  C   UNL     1      42.990  75.009  42.419  0.00  0.00    +0.038 A 
ATOM      6  C   UNL     1      42.456  75.468  41.231  0.00  0.00    +0.020 A 
ENDROOT
BRANCH   2   7
ATOM      7  C   UNL     1      44.510  78.551  40.605  0.00  0.00    +0.272 C 
ATOM      8  O   UNL     1      43.735  79.132  39.813  0.00  0.00    -0.268 OA
ATOM      9  N   UNL     1      45.775  79.100  40.818  0.00  0.00    -0.157 NA
ATOM     10  C   UNL     1      46.311  80.299  40.314  0.00  0.00    +0.155 A 
ATOM     11  N   UNL     1      45.909  80.695  39.071  0.00  0.00    -0.226 NA
ATOM     12  C   UNL     1      46.344  81.815  38.475  0.00  0.00    +0.112 A 
ATOM     13  C   UNL     1      47.242  82.667  39.081  0.00  0.00    +0.077 A 
ATOM     14  C   UNL     1      47.676  82.310  40.335  0.00  0.00    +0.016 A 
ATOM     15  C   UNL     1      47.203  81.128  40.935  0.00  0.00    +0.037 A 
ATOM     16 CL   UNL     1      47.806  84.134  38.292  0.00  0.00    -0.081 Cl
ENDBRANCH   2   7
BRANCH   1  19
ATOM     17  C   UNL     1      41.565  76.268  38.618  0.00  0.00    +0.269 C 
ATOM     18  O   UNL     1      41.832  75.036  38.643  0.00  0.00    -0.268 OA
ATOM     19  N   UNL     1      42.399  77.104  39.405  0.00  0.00    -0.175 NA
BRANCH  17  23
ATOM     20  C   UNL     1      38.298  77.703  36.229  0.00  0.00    +0.033 A 
ATOM     21  C   UNL     1      38.971  78.550  37.083  0.00  0.00    +0.003 A 
ATOM     22  C   UNL     1      40.040  78.107  37.873  0.00  0.00    +0.005 A 
ATOM     23  C   UNL     1      40.462  76.800  37.827  0.00  0.00    +0.055 A 
ATOM     24  C   UNL     1      39.769  75.954  36.957  0.00  0.00    +0.005 A 
ATOM     25  C   UNL     1      38.718  76.389  36.180  0.00  0.00    +0.003 A 
BRANCH  20  29
ATOM     26  C   UNL     1      37.377  79.996  33.696  0.00  0.00    +0.114 C 
ATOM     27  N   UNL     1      37.356  78.599  34.069  0.00  0.00    -0.288 N 
ATOM     28  C   UNL     1      37.516  77.607  33.030  0.00  0.00    +0.114 C 
ATOM     29  C   UNL     1      37.185  78.182  35.412  0.00  0.00    +0.153 C 
ATOM     30  N   UNL     1      36.019  78.213  35.966  0.00  0.00    -0.132 NA
ENDBRANCH  20  29
ENDBRANCH  17  23
ENDBRANCH   1  19
BRANCH   4  31
ATOM     31  O   UNL     1      44.559  75.226  44.230  0.00  0.00    -0.471 OA
ATOM     32  C   UNL     1      45.900  75.571  44.512  0.00  0.00    +0.252 C 
ENDBRANCH   4  31
TORSDOF 5
