REMARK  Name = Bevantolol
REMARK  10 active torsions:
REMARK  status: ('A' for Active; 'I' for Inactive)
REMARK    1  A    between atoms: C_4  and  O_8
REMARK    2  A    between atoms: O_8  and  C_9
REMARK    3  A    between atoms: C_9  and  C_10
REMARK    4  A    between atoms: C_10  and  C_11
REMARK    5  A    between atoms: C_11  and  N_12
REMARK    6  A    between atoms: N_12  and  C_13
REMARK    7  A    between atoms: C_13  and  C_14
REMARK    8  A    between atoms: C_14  and  C_15
REMARK    9  A    between atoms: C_17  and  O_23
REMARK   10  A    between atoms: C_18  and  O_21
REMARK                            x       y       z     vdW  Elec       q    Type
REMARK                         _______ _______ _______ _____ _____    ______ ____
ROOT
ATOM      1  N   UNL     1      45.638  79.850  39.994  0.00  0.00    -0.215 NA
ENDROOT
BRANCH   1   2
ATOM      2  C   UNL     1      45.020  81.115  39.578  0.00  0.00    +0.125 C 
BRANCH   2   3
ATOM      3  C   UNL     1      46.143  82.072  39.053  0.00  0.00    +0.213 C 
ATOM      4  O   UNL     1      45.494  82.799  38.071  0.00  0.00    -0.218 OA
BRANCH   3   5
ATOM      5  C   UNL     1      46.539  82.886  40.273  0.00  0.00    +0.239 C 
BRANCH   5   6
ATOM      6  O   UNL     1      47.895  82.519  40.621  0.00  0.00    -0.473 OA
BRANCH   6  10
ATOM      7  C   UNL     1      51.984  83.826  43.032  0.00  0.00    +0.031 C 
ATOM      8  C   UNL     1      50.486  83.919  42.885  0.00  0.00    -0.019 A 
ATOM      9  C   UNL     1      49.864  83.189  41.855  0.00  0.00    +0.033 A 
ATOM     10  C   UNL     1      48.492  83.267  41.667  0.00  0.00    +0.138 A 
ATOM     11  C   UNL     1      47.754  84.050  42.482  0.00  0.00    +0.037 A 
ATOM     12  C   UNL     1      48.353  84.770  43.497  0.00  0.00    +0.003 A 
ATOM     13  C   UNL     1      49.720  84.710  43.705  0.00  0.00    -0.004 A 
ENDBRANCH   6  10
ENDBRANCH   5   6
ENDBRANCH   3   5
ENDBRANCH   2   3
ENDBRANCH   1   2
BRANCH   1  14
ATOM     14  C   UNL     1      44.507  79.058  40.537  0.00  0.00    +0.093 C 
BRANCH  14  15
ATOM     15  C   UNL     1      44.549  77.696  39.953  0.00  0.00    +0.045 C 
BRANCH  15  16
ATOM     16  C   UNL     1      43.230  77.272  39.410  0.00  0.00    -0.018 A 
ATOM     17  C   UNL     1      42.553  76.148  39.740  0.00  0.00    +0.036 A 
ATOM     18  C   UNL     1      41.333  75.816  39.167  0.00  0.00    +0.172 A 
ATOM     19  C   UNL     1      40.794  76.661  38.227  0.00  0.00    +0.172 A 
ATOM     20  C   UNL     1      41.484  77.820  37.880  0.00  0.00    +0.040 A 
ATOM     21  C   UNL     1      42.677  78.122  38.458  0.00  0.00    -0.001 A 
BRANCH  19  22
ATOM     22  O   UNL     1      39.597  76.437  37.587  0.00  0.00    -0.468 OA
ATOM     23  C   UNL     1      39.140  75.212  37.131  0.00  0.00    +0.253 C 
ENDBRANCH  19  22
BRANCH  18  24
ATOM     24  O   UNL     1      40.675  74.678  39.529  0.00  0.00    -0.468 OA
ATOM     25  C   UNL     1      40.838  73.413  38.957  0.00  0.00    +0.253 C 
ENDBRANCH  18  24
ENDBRANCH  15  16
ENDBRANCH  14  15
ENDBRANCH   1  14
TORSDOF 10
