REMARK  Name = Bexagliflozin
REMARK  9 active torsions:
REMARK  status: ('A' for Active; 'I' for Inactive)
REMARK    1  A    between atoms: C_3  and  O_4
REMARK    2  A    between atoms: O_4  and  C_5
REMARK    3  A    between atoms: C_5  and  C_6
REMARK    4  A    between atoms: C_6  and  O_7
REMARK    5  A    between atoms: O_7  and  C_8
REMARK    6  A    between atoms: C_11  and  C_14
REMARK    7  A    between atoms: C_14  and  C_15
REMARK    8  A    between atoms: C_19  and  C_21
REMARK    9  A    between atoms: C_25  and  C_27
REMARK                            x       y       z     vdW  Elec       q    Type
REMARK                         _______ _______ _______ _____ _____    ______ ____
ROOT
ATOM      1  C   UNL     1      48.791  81.309  41.612  0.00  0.00    -0.007 A 
ATOM      2  C   UNL     1      49.484  82.075  40.728  0.00  0.00    +0.054 A 
ATOM      3  C   UNL     1      48.775  82.688  39.693  0.00  0.00    +0.011 A 
ATOM      4  C   UNL     1      47.413  82.521  39.574  0.00  0.00    -0.001 A 
ATOM      5  C   UNL     1      46.710  81.754  40.459  0.00  0.00    +0.007 A 
ATOM      6  C   UNL     1      47.401  81.146  41.481  0.00  0.00    -0.005 A 
ATOM      7 CL   UNL     1      51.192  82.284  40.878  0.00  0.00    -0.083 Cl
ENDROOT
BRANCH   5   8
ATOM      8  C   UNL     1      45.243  81.528  40.394  0.00  0.00    +0.170 C 
ATOM      9  C   UNL     1      44.690  81.497  39.018  0.00  0.00    +0.216 C 
ATOM     10  C   UNL     1      44.946  80.199  38.289  0.00  0.00    +0.218 C 
ATOM     11  C   UNL     1      44.664  79.035  39.232  0.00  0.00    +0.214 C 
ATOM     12  C   UNL     1      45.517  79.266  40.466  0.00  0.00    +0.181 C 
ATOM     13  O   UNL     1      44.992  80.367  41.121  0.00  0.00    -0.346 OA
ATOM     14  O   UNL     1      44.918  77.825  38.635  0.00  0.00    -0.218 OA
ATOM     15  O   UNL     1      44.006  80.111  37.261  0.00  0.00    -0.217 OA
ATOM     16  O   UNL     1      43.282  81.589  39.141  0.00  0.00    -0.217 OA
BRANCH  12  17
ATOM     17  C   UNL     1      45.523  78.052  41.369  0.00  0.00    +0.214 C 
ATOM     18  O   UNL     1      44.982  78.382  42.609  0.00  0.00    -0.218 OA
ENDBRANCH  12  17
ENDBRANCH   5   8
BRANCH   1  19
ATOM     19  C   UNL     1      49.392  80.607  42.741  0.00  0.00    +0.053 C 
BRANCH  19  23
ATOM     20  C   UNL     1      49.576  76.378  42.714  0.00  0.00    +0.139 A 
ATOM     21  C   UNL     1      48.639  77.018  43.478  0.00  0.00    +0.037 A 
ATOM     22  C   UNL     1      48.580  78.413  43.474  0.00  0.00    -0.001 A 
ATOM     23  C   UNL     1      49.448  79.166  42.716  0.00  0.00    -0.018 A 
ATOM     24  C   UNL     1      50.383  78.502  41.955  0.00  0.00    -0.001 A 
ATOM     25  C   UNL     1      50.450  77.112  41.952  0.00  0.00    +0.037 A 
BRANCH  20  26
ATOM     26  O   UNL     1      49.688  74.989  42.673  0.00  0.00    -0.473 OA
BRANCH  26  27
ATOM     27  C   UNL     1      48.632  74.120  42.383  0.00  0.00    +0.237 C 
BRANCH  27  28
ATOM     28  C   UNL     1      49.211  72.700  42.423  0.00  0.00    +0.189 C 
BRANCH  28  29
ATOM     29  O   UNL     1      48.477  72.011  43.369  0.00  0.00    -0.352 OA
BRANCH  29  32
ATOM     30  C   UNL     1      49.961  70.200  44.237  0.00  0.00    +0.032 C 
ATOM     31  C   UNL     1      48.639  70.118  44.893  0.00  0.00    +0.032 C 
ATOM     32  C   UNL     1      48.781  70.678  43.475  0.00  0.00    +0.116 C 
ENDBRANCH  29  32
ENDBRANCH  28  29
ENDBRANCH  27  28
ENDBRANCH  26  27
ENDBRANCH  20  26
ENDBRANCH  19  23
ENDBRANCH   1  19
TORSDOF 9
