REMARK  Name = Bexarotene
REMARK  3 active torsions:
REMARK  status: ('A' for Active; 'I' for Inactive)
REMARK    1  A    between atoms: C_7  and  C_8
REMARK    2  A    between atoms: C_8  and  C_10
REMARK    3  A    between atoms: C_13  and  C_16
REMARK                            x       y       z     vdW  Elec       q    Type
REMARK                         _______ _______ _______ _____ _____    ______ ____
ROOT
ATOM      1  C   UNL     1      44.683  81.400  41.420  0.00  0.00    +0.031 C 
ATOM      2  C   UNL     1      46.171  81.441  41.636  0.00  0.00    -0.022 A 
ATOM      3  C   UNL     1      46.687  82.618  42.199  0.00  0.00    -0.009 A 
ATOM      4  C   UNL     1      48.044  82.817  42.338  0.00  0.00    -0.027 A 
ATOM      5  C   UNL     1      48.955  81.870  41.930  0.00  0.00    -0.027 A 
ATOM      6  C   UNL     1      48.446  80.720  41.383  0.00  0.00    -0.005 A 
ATOM      7  C   UNL     1      47.055  80.493  41.232  0.00  0.00    -0.004 A 
ATOM      8  C   UNL     1      50.435  82.017  42.046  0.00  0.00    +0.019 C 
ATOM      9  C   UNL     1      50.845  83.383  42.468  0.00  0.00    +0.004 C 
ATOM     10  C   UNL     1      49.814  84.440  42.137  0.00  0.00    +0.004 C 
ATOM     11  C   UNL     1      48.584  84.076  42.941  0.00  0.00    +0.019 C 
ATOM     12  C   UNL     1      48.980  83.908  44.373  0.00  0.00    +0.004 C 
ATOM     13  C   UNL     1      47.553  85.182  42.876  0.00  0.00    +0.004 C 
ATOM     14  C   UNL     1      51.112  81.721  40.702  0.00  0.00    +0.004 C 
ATOM     15  C   UNL     1      51.009  81.027  43.039  0.00  0.00    +0.004 C 
ENDROOT
BRANCH   7  16
ATOM     16  C   UNL     1      46.651  79.193  40.771  0.00  0.00    -0.000 C 
ATOM     17  C   UNL     1      47.493  78.182  40.987  0.00  0.00    -0.000 C 
BRANCH  16  18
ATOM     18  C   UNL     1      45.393  78.870  40.133  0.00  0.00    -0.000 A 
ATOM     19  C   UNL     1      44.940  79.463  38.989  0.00  0.00    +0.000 A 
ATOM     20  C   UNL     1      43.771  79.072  38.398  0.00  0.00    +0.007 A 
ATOM     21  C   UNL     1      42.992  78.060  38.930  0.00  0.00    +0.080 A 
ATOM     22  C   UNL     1      43.430  77.451  40.083  0.00  0.00    +0.007 A 
ATOM     23  C   UNL     1      44.595  77.853  40.655  0.00  0.00    +0.000 A 
BRANCH  21  24
ATOM     24  C   UNL     1      41.758  77.671  38.278  0.00  0.00    +0.388 C 
ATOM     25  O   UNL     1      41.078  76.721  38.740  0.00  0.00    -0.241 OA
ATOM     26  O   UNL     1      41.285  78.312  37.145  0.00  0.00    -0.241 OA
ENDBRANCH  21  24
ENDBRANCH  16  18
ENDBRANCH   7  16
TORSDOF 3
