REMARK  Name = Biapenem
REMARK  4 active torsions:
REMARK  status: ('A' for Active; 'I' for Inactive)
REMARK    1  A    between atoms: C_4  and  C_22
REMARK    2  A    between atoms: C_8  and  C_19
REMARK    3  A    between atoms: C_9  and  S_10
REMARK    4  A    between atoms: S_10  and  C_11
REMARK                            x       y       z     vdW  Elec       q    Type
REMARK                         _______ _______ _______ _____ _____    ______ ____
ROOT
ATOM      1  C   UNL     1      47.743  83.175  41.309  0.00  0.00    +0.007 C 
ATOM      2  C   UNL     1      48.723  82.858  42.439  0.00  0.00    +0.049 C 
ATOM      3  C   UNL     1      50.043  83.442  41.995  0.00  0.00    +0.096 C 
ATOM      4  C   UNL     1      50.791  84.324  42.904  0.00  0.00    +0.126 C 
ATOM      5  C   UNL     1      51.937  83.407  42.545  0.00  0.00    +0.233 C 
ATOM      6  O   UNL     1      53.168  83.511  42.410  0.00  0.00    -0.274 OA
ATOM      7  N   UNL     1      50.952  82.390  42.439  0.00  0.00    -0.254 N 
ATOM      8  C   UNL     1      50.258  81.154  42.457  0.00  0.00    +0.136 C 
ATOM      9  C   UNL     1      48.930  81.387  42.459  0.00  0.00    +0.025 C 
ENDROOT
BRANCH   8  10
ATOM     10  C   UNL     1      50.900  79.847  42.472  0.00  0.00    +0.401 C 
ATOM     11  O   UNL     1      51.894  79.625  43.192  0.00  0.00    -0.239 OA
ATOM     12  O   UNL     1      50.414  78.816  41.679  0.00  0.00    -0.239 OA
ENDBRANCH   8  10
BRANCH   4  13
ATOM     13  C   UNL     1      50.519  84.313  44.356  0.00  0.00    +0.162 C 
ATOM     14  C   UNL     1      49.144  84.960  44.571  0.00  0.00    +0.036 C 
ATOM     15  O   UNL     1      51.416  84.995  45.138  0.00  0.00    -0.223 OA
ENDBRANCH   4  13
BRANCH   9  16
ATOM     16  S   UNL     1      47.739  80.072  42.497  0.00  0.00    -0.113 S 
BRANCH  16  17
ATOM     17  C   UNL     1      46.272  80.513  41.581  0.00  0.00    +0.100 C 
ATOM     18  C   UNL     1      45.818  79.368  40.671  0.00  0.00    +0.140 C 
ATOM     19  N   UNL     1      45.370  80.066  39.480  0.00  0.00    -0.249 N 
ATOM     20  C   UNL     1      44.590  79.805  38.401  0.00  0.00    +0.196 A 
ATOM     21  N   UNL     1      44.606  80.931  37.666  0.00  0.00    -0.202 NA
ATOM     22  C   UNL     1      45.377  81.845  38.289  0.00  0.00    +0.196 A 
ATOM     23  N   UNL     1      45.849  81.288  39.423  0.00  0.00    -0.249 N 
ATOM     24  C   UNL     1      46.678  81.573  40.565  0.00  0.00    +0.140 C 
ENDBRANCH  16  17
ENDBRANCH   9  16
TORSDOF 4
