REMARK  Name = BIBW_2992
REMARK  7 active torsions:
REMARK  status: ('A' for Active; 'I' for Inactive)
REMARK    1  A    between atoms: N_2  and  C_4
REMARK    2  A    between atoms: C_4  and  C_5
REMARK    3  A    between atoms: C_6  and  C_7
REMARK    4  A    between atoms: N_9  and  C_10
REMARK    5  A    between atoms: C_11  and  O_29
REMARK    6  A    between atoms: N_20  and  C_21
REMARK    7  A    between atoms: O_29  and  C_30
REMARK                            x       y       z     vdW  Elec       q    Type
REMARK                         _______ _______ _______ _____ _____    ______ ____
ROOT
ATOM      1  C   UNL     1      44.809  78.320  40.498  0.00  0.00    +0.108 A 
ATOM      2  C   UNL     1      43.944  78.604  39.435  0.00  0.00    +0.155 A 
ATOM      3  C   UNL     1      44.120  79.760  38.718  0.00  0.00    +0.057 A 
ATOM      4  C   UNL     1      45.128  80.673  39.005  0.00  0.00    +0.089 A 
ATOM      5  C   UNL     1      45.986  80.379  40.072  0.00  0.00    +0.053 A 
ATOM      6  C   UNL     1      45.824  79.224  40.798  0.00  0.00    +0.024 A 
ATOM      7  C   UNL     1      46.992  81.255  40.411  0.00  0.00    +0.155 A 
ATOM      8  N   UNL     1      47.072  82.367  39.658  0.00  0.00    -0.207 NA
ATOM      9  C   UNL     1      46.258  82.658  38.633  0.00  0.00    +0.200 A 
ATOM     10  N   UNL     1      45.279  81.793  38.312  0.00  0.00    -0.224 NA
ATOM     11  N   UNL     1      47.894  80.999  41.455  0.00  0.00    -0.194 NA
ENDROOT
BRANCH  11  12
ATOM     12  C   UNL     1      48.850  81.968  41.903  0.00  0.00    +0.073 A 
ATOM     13  C   UNL     1      48.411  83.117  42.577  0.00  0.00    +0.030 A 
ATOM     14  C   UNL     1      49.298  84.077  42.998  0.00  0.00    +0.086 A 
ATOM     15  C   UNL     1      50.658  83.974  42.788  0.00  0.00    +0.151 A 
ATOM     16  C   UNL     1      51.107  82.854  42.129  0.00  0.00    +0.032 A 
ATOM     17  C   UNL     1      50.204  81.873  41.698  0.00  0.00    +0.019 A 
ATOM     18  F   UNL     1      51.494  84.950  43.225  0.00  0.00    -0.203 F 
ATOM     19 CL   UNL     1      48.722  85.516  43.845  0.00  0.00    -0.080 Cl
ENDBRANCH  11  12
BRANCH   1  22
ATOM     20  C   UNL     1      45.501  76.033  41.132  0.00  0.00    +0.269 C 
ATOM     21  O   UNL     1      46.546  76.237  40.427  0.00  0.00    -0.268 OA
ATOM     22  N   UNL     1      44.631  77.141  41.258  0.00  0.00    -0.172 NA
BRANCH  20  24
ATOM     23  C   UNL     1      46.081  73.740  41.699  0.00  0.00    -0.004 C 
ATOM     24  C   UNL     1      45.240  74.731  41.751  0.00  0.00    +0.057 C 
BRANCH  23  25
ATOM     25  C   UNL     1      45.803  72.489  42.435  0.00  0.00    +0.099 C 
BRANCH  25  27
ATOM     26  C   UNL     1      48.047  72.105  42.977  0.00  0.00    +0.090 C 
ATOM     27  N   UNL     1      46.943  71.588  42.187  0.00  0.00    -0.267 NA
ATOM     28  C   UNL     1      46.588  70.272  42.690  0.00  0.00    +0.090 C 
ENDBRANCH  25  27
ENDBRANCH  23  25
ENDBRANCH  20  24
ENDBRANCH   1  22
BRANCH   2  29
ATOM     29  O   UNL     1      42.945  77.710  39.143  0.00  0.00    -0.475 OA
BRANCH  29  30
ATOM     30  C   UNL     1      42.032  77.763  38.125  0.00  0.00    +0.198 C 
ATOM     31  C   UNL     1      40.722  78.443  38.530  0.00  0.00    +0.078 C 
ATOM     32  C   UNL     1      39.710  77.695  37.696  0.00  0.00    +0.146 C 
ATOM     33  O   UNL     1      40.421  76.789  36.923  0.00  0.00    -0.350 OA
ATOM     34  C   UNL     1      41.525  76.409  37.654  0.00  0.00    +0.185 C 
ENDBRANCH  29  30
ENDBRANCH   2  29
TORSDOF 7
