REMARK  Name = Bicalutamide
REMARK  7 active torsions:
REMARK  status: ('A' for Active; 'I' for Inactive)
REMARK    1  A    between atoms: C_2  and  C_3
REMARK    2  A    between atoms: C_2  and  C_14
REMARK    3  A    between atoms: C_3  and  S_4
REMARK    4  A    between atoms: S_4  and  C_7
REMARK    5  A    between atoms: N_16  and  C_17
REMARK    6  A    between atoms: C_19  and  C_25
REMARK    7  A    between atoms: C_20  and  C_23
REMARK                            x       y       z     vdW  Elec       q    Type
REMARK                         _______ _______ _______ _____ _____    ______ ____
ROOT
ATOM      1  C   UNL     1      46.991  79.800  41.223  0.00  0.00    +0.275 C 
ATOM      2  O   UNL     1      47.631  80.356  40.296  0.00  0.00    -0.270 OA
ATOM      3  N   UNL     1      46.777  80.543  42.410  0.00  0.00    -0.177 NA
ENDROOT
BRANCH   3   4
ATOM      4  C   UNL     1      47.600  81.696  42.676  0.00  0.00    +0.073 A 
ATOM      5  C   UNL     1      48.951  81.705  42.438  0.00  0.00    +0.021 A 
ATOM      6  C   UNL     1      49.731  82.811  42.694  0.00  0.00    +0.082 A 
ATOM      7  C   UNL     1      49.112  83.931  43.206  0.00  0.00    +0.072 A 
ATOM      8  C   UNL     1      47.752  83.947  43.455  0.00  0.00    +0.012 A 
ATOM      9  C   UNL     1      46.979  82.816  43.188  0.00  0.00    +0.017 A 
BRANCH   6  10
ATOM     10  C   UNL     1      51.212  82.825  42.435  0.00  0.00    +0.419 C 
ATOM     11  F   UNL     1      51.471  83.844  41.522  0.00  0.00    -0.166 F 
ATOM     12  F   UNL     1      51.614  81.649  41.868  0.00  0.00    -0.166 F 
ATOM     13  F   UNL     1      51.847  83.035  43.628  0.00  0.00    -0.166 F 
ENDBRANCH   6  10
BRANCH   7  14
ATOM     14  C   UNL     1      49.931  85.082  43.472  0.00  0.00    +0.100 C 
ATOM     15  N   UNL     1      50.613  86.009  43.681  0.00  0.00    -0.191 NA
ENDBRANCH   7  14
ENDBRANCH   3   4
BRANCH   1  17
ATOM     16  C   UNL     1      47.632  77.460  40.786  0.00  0.00    +0.044 C 
ATOM     17  C   UNL     1      46.474  78.392  41.071  0.00  0.00    +0.218 C 
ATOM     18  O   UNL     1      45.866  77.966  42.238  0.00  0.00    -0.214 OA
BRANCH  17  19
ATOM     19  C   UNL     1      45.539  78.409  39.900  0.00  0.00    +0.195 C 
BRANCH  19  20
ATOM     20  S   UNL     1      43.887  78.828  40.275  0.00  0.00    +0.012 S 
ATOM     21  O   UNL     1      43.645  78.501  41.730  0.00  0.00    -0.169 OA
ATOM     22  O   UNL     1      43.709  80.313  40.139  0.00  0.00    -0.169 OA
BRANCH  20  23
ATOM     23  C   UNL     1      42.722  78.020  39.253  0.00  0.00    +0.106 A 
ATOM     24  C   UNL     1      42.048  76.886  39.683  0.00  0.00    +0.021 A 
ATOM     25  C   UNL     1      41.126  76.242  38.885  0.00  0.00    +0.031 A 
ATOM     26  C   UNL     1      40.826  76.692  37.617  0.00  0.00    +0.140 A 
ATOM     27  C   UNL     1      41.490  77.819  37.181  0.00  0.00    +0.031 A 
ATOM     28  C   UNL     1      42.413  78.462  37.983  0.00  0.00    +0.021 A 
ATOM     29  F   UNL     1      39.912  76.053  36.827  0.00  0.00    -0.204 F 
ENDBRANCH  20  23
ENDBRANCH  19  20
ENDBRANCH  17  19
ENDBRANCH   1  17
TORSDOF 7
