REMARK  Name = Bictegravir,_emtricitabine_and_tenofovir_alafenamide
REMARK  17 active torsions:
REMARK  status: ('A' for Active; 'I' for Inactive)
REMARK    1  A    between atoms: C_2  and  O_4
REMARK    2  A    between atoms: O_4  and  C_5
REMARK    3  A    between atoms: C_5  and  C_7
REMARK    4  A    between atoms: C_7  and  N_9
REMARK    5  A    between atoms: N_9  and  P_10
REMARK    6  A    between atoms: P_10  and  C_12
REMARK    7  A    between atoms: P_10  and  O_27
REMARK    8  A    between atoms: C_12  and  O_13
REMARK    9  A    between atoms: O_13  and  C_14
REMARK   10  A    between atoms: C_14  and  C_16
REMARK   11  A    between atoms: C_16  and  N_17
REMARK   12  A    between atoms: O_27  and  C_28
REMARK   13  A    between atoms: C_45  and  C_53
REMARK   14  A    between atoms: N_55  and  C_56
REMARK   15  A    between atoms: C_56  and  C_57
REMARK   16  A    between atoms: C_67  and  N_73
REMARK   17  A    between atoms: C_69  and  C_71
REMARK                            x       y       z     vdW  Elec       q    Type
REMARK                         _______ _______ _______ _____ _____    ______ ____
ROOT
ATOM      1  P   UNL     1      44.045  77.059  40.449  0.00  0.00    +0.375 P 
ATOM      2  O   UNL     1      44.655  75.724  40.013  0.00  0.00    -0.254 OA
ENDROOT
BRANCH   1   3
ATOM      3  N   UNL     1      42.761  77.557  39.384  0.00  0.00    -0.124 NA
BRANCH   3   4
ATOM      4  C   UNL     1      42.361  76.424  38.583  0.00  0.00    +0.181 C 
ATOM      5  C   UNL     1      43.221  76.477  37.314  0.00  0.00    +0.031 C 
BRANCH   4   6
ATOM      6  C   UNL     1      40.921  76.538  38.230  0.00  0.00    +0.333 C 
ATOM      7  O   UNL     1      40.493  77.432  37.437  0.00  0.00    -0.249 OA
BRANCH   6   8
ATOM      8  O   UNL     1      39.961  75.680  38.745  0.00  0.00    -0.451 OA
BRANCH   8  10
ATOM      9  C   UNL     1      37.794  75.002  39.555  0.00  0.00    +0.047 C 
ATOM     10  C   UNL     1      38.621  76.104  38.918  0.00  0.00    +0.169 C 
ATOM     11  C   UNL     1      38.091  76.453  37.539  0.00  0.00    +0.047 C 
ENDBRANCH   8  10
ENDBRANCH   6   8
ENDBRANCH   4   6
ENDBRANCH   3   4
ENDBRANCH   1   3
BRANCH   1  12
ATOM     12  C   UNL     1      45.417  78.248  40.443  0.00  0.00    +0.259 C 
BRANCH  12  13
ATOM     13  O   UNL     1      46.584  77.528  40.454  0.00  0.00    -0.343 OA
BRANCH  13  14
ATOM     14  C   UNL     1      47.645  78.197  39.837  0.00  0.00    +0.139 C 
ATOM     15  C   UNL     1      48.629  77.176  39.335  0.00  0.00    +0.034 C 
BRANCH  14  16
ATOM     16  C   UNL     1      48.306  79.029  40.919  0.00  0.00    +0.138 C 
BRANCH  16  17
ATOM     17  N   UNL     1      48.974  80.183  40.388  0.00  0.00    -0.292 N 
ATOM     18  C   UNL     1      49.825  80.986  41.047  0.00  0.00    +0.180 A 
ATOM     19  N   UNL     1      50.237  81.948  40.217  0.00  0.00    -0.219 NA
ATOM     20  C   UNL     1      49.657  81.773  39.023  0.00  0.00    +0.152 A 
ATOM     21  C   UNL     1      49.743  82.479  37.837  0.00  0.00    +0.192 A 
ATOM     22  N   UNL     1      49.013  82.017  36.821  0.00  0.00    -0.204 NA
ATOM     23  C   UNL     1      48.226  80.928  36.906  0.00  0.00    +0.202 A 
ATOM     24  N   UNL     1      48.147  80.247  38.059  0.00  0.00    -0.205 NA
ATOM     25  C   UNL     1      48.855  80.656  39.124  0.00  0.00    +0.167 A 
ATOM     26  N   UNL     1      50.575  83.625  37.757  0.00  0.00    -0.105 NA
ENDBRANCH  16  17
ENDBRANCH  14  16
ENDBRANCH  13  14
ENDBRANCH  12  13
ENDBRANCH   1  12
BRANCH   1  27
ATOM     27  O   UNL     1      43.483  76.848  42.052  0.00  0.00    -0.428 OA
BRANCH  27  28
ATOM     28  C   UNL     1      44.347  76.441  43.073  0.00  0.00    +0.146 A 
ATOM     29  C   UNL     1      44.798  75.138  43.047  0.00  0.00    +0.037 A 
ATOM     30  C   UNL     1      45.659  74.732  44.065  0.00  0.00    +0.003 A 
ATOM     31  C   UNL     1      46.032  75.610  45.047  0.00  0.00    +0.000 A 
ATOM     32  C   UNL     1      45.571  76.912  45.057  0.00  0.00    +0.003 A 
ATOM     33  C   UNL     1      44.727  77.322  44.067  0.00  0.00    +0.037 A 
ENDBRANCH  27  28
ENDBRANCH   1  27
TORSDOF 12
REMARK  Name = Bictegravir,_emtricitabine_and_tenofovir_alafenamide
REMARK  17 active torsions:
REMARK  status: ('A' for Active; 'I' for Inactive)
REMARK    1  A    between atoms: C_2  and  O_4
REMARK    2  A    between atoms: O_4  and  C_5
REMARK    3  A    between atoms: C_5  and  C_7
REMARK    4  A    between atoms: C_7  and  N_9
REMARK    5  A    between atoms: N_9  and  P_10
REMARK    6  A    between atoms: P_10  and  C_12
REMARK    7  A    between atoms: P_10  and  O_27
REMARK    8  A    between atoms: C_12  and  O_13
REMARK    9  A    between atoms: O_13  and  C_14
REMARK   10  A    between atoms: C_14  and  C_16
REMARK   11  A    between atoms: C_16  and  N_17
REMARK   12  A    between atoms: O_27  and  C_28
REMARK   13  A    between atoms: C_45  and  C_53
REMARK   14  A    between atoms: N_55  and  C_56
REMARK   15  A    between atoms: C_56  and  C_57
REMARK   16  A    between atoms: C_67  and  N_73
REMARK   17  A    between atoms: C_69  and  C_71
REMARK                            x       y       z     vdW  Elec       q    Type
REMARK                         _______ _______ _______ _____ _____    ______ ____
ROOT
ATOM      1  C   UNL     1      42.922  73.987  38.549  0.00  0.00    +0.022 C 
ATOM      2  C   UNL     1      42.664  72.898  39.567  0.00  0.00    +0.031 C 
ATOM      3  C   UNL     1      41.490  73.475  40.378  0.00  0.00    +0.119 C 
ATOM      4  C   UNL     1      40.636  74.006  39.249  0.00  0.00    +0.049 C 
ATOM      5  C   UNL     1      41.695  74.866  38.535  0.00  0.00    +0.080 C 
ATOM      6  N   UNL     1      41.921  75.964  39.432  0.00  0.00    -0.253 N 
ATOM      7  C   UNL     1      42.054  75.707  40.838  0.00  0.00    +0.217 C 
ATOM      8  O   UNL     1      42.009  74.399  41.220  0.00  0.00    -0.338 OA
ATOM      9  C   UNL     1      43.335  76.328  41.328  0.00  0.00    +0.157 C 
ATOM     10  N   UNL     1      43.423  77.740  40.916  0.00  0.00    -0.315 N 
ATOM     11  C   UNL     1      44.152  78.563  41.687  0.00  0.00    +0.084 A 
ATOM     12  C   UNL     1      44.310  79.903  41.375  0.00  0.00    +0.114 A 
ATOM     13  C   UNL     1      43.699  80.385  40.247  0.00  0.00    +0.242 A 
ATOM     14  O   UNL     1      43.752  81.573  39.840  0.00  0.00    -0.283 OA
ATOM     15  C   UNL     1      42.940  79.515  39.451  0.00  0.00    +0.254 A 
ATOM     16  C   UNL     1      42.824  78.215  39.810  0.00  0.00    +0.157 A 
ATOM     17  C   UNL     1      42.006  77.300  38.977  0.00  0.00    +0.270 C 
ATOM     18  O   UNL     1      41.435  77.707  37.938  0.00  0.00    -0.268 OA
ATOM     19  O   UNL     1      42.305  79.958  38.304  0.00  0.00    -0.281 OA
ENDROOT
BRANCH  12  20
ATOM     20  C   UNL     1      45.103  80.776  42.224  0.00  0.00    +0.270 C 
ATOM     21  O   UNL     1      44.575  81.918  42.499  0.00  0.00    -0.268 OA
ATOM     22  N   UNL     1      46.367  80.537  42.781  0.00  0.00    -0.197 NA
BRANCH  22  23
ATOM     23  C   UNL     1      47.217  81.580  43.380  0.00  0.00    +0.146 C 
BRANCH  23  24
ATOM     24  C   UNL     1      48.549  81.091  43.768  0.00  0.00    +0.055 A 
ATOM     25  C   UNL     1      49.159  81.598  44.896  0.00  0.00    +0.142 A 
ATOM     26  C   UNL     1      50.413  81.147  45.308  0.00  0.00    +0.059 A 
ATOM     27  C   UNL     1      51.081  80.167  44.583  0.00  0.00    +0.145 A 
ATOM     28  C   UNL     1      50.472  79.662  43.459  0.00  0.00    +0.059 A 
ATOM     29  C   UNL     1      49.216  80.129  43.067  0.00  0.00    +0.142 A 
ATOM     30  F   UNL     1      48.689  79.565  41.968  0.00  0.00    -0.204 F 
ATOM     31  F   UNL     1      52.294  79.707  44.950  0.00  0.00    -0.204 F 
ATOM     32  F   UNL     1      48.583  82.555  45.663  0.00  0.00    -0.204 F 
ENDBRANCH  23  24
ENDBRANCH  22  23
ENDBRANCH  12  20
TORSDOF 3
REMARK  Name = Bictegravir,_emtricitabine_and_tenofovir_alafenamide
REMARK  17 active torsions:
REMARK  status: ('A' for Active; 'I' for Inactive)
REMARK    1  A    between atoms: C_2  and  O_4
REMARK    2  A    between atoms: O_4  and  C_5
REMARK    3  A    between atoms: C_5  and  C_7
REMARK    4  A    between atoms: C_7  and  N_9
REMARK    5  A    between atoms: N_9  and  P_10
REMARK    6  A    between atoms: P_10  and  C_12
REMARK    7  A    between atoms: P_10  and  O_27
REMARK    8  A    between atoms: C_12  and  O_13
REMARK    9  A    between atoms: O_13  and  C_14
REMARK   10  A    between atoms: C_14  and  C_16
REMARK   11  A    between atoms: C_16  and  N_17
REMARK   12  A    between atoms: O_27  and  C_28
REMARK   13  A    between atoms: C_45  and  C_53
REMARK   14  A    between atoms: N_55  and  C_56
REMARK   15  A    between atoms: C_56  and  C_57
REMARK   16  A    between atoms: C_67  and  N_73
REMARK   17  A    between atoms: C_69  and  C_71
REMARK                            x       y       z     vdW  Elec       q    Type
REMARK                         _______ _______ _______ _____ _____    ______ ____
ROOT
ATOM      1  N   UNL     1      44.118  77.691  40.955  0.00  0.00    -0.253 N 
ATOM      2  C   UNL     1      44.060  77.156  39.723  0.00  0.00    +0.115 A 
ATOM      3  C   UNL     1      43.419  75.971  39.441  0.00  0.00    +0.192 A 
ATOM      4  C   UNL     1      42.800  75.286  40.460  0.00  0.00    +0.203 A 
ATOM      5  N   UNL     1      42.859  75.822  41.690  0.00  0.00    -0.172 NA
ATOM      6  C   UNL     1      43.496  76.981  41.919  0.00  0.00    +0.353 A 
ATOM      7  O   UNL     1      43.539  77.472  43.097  0.00  0.00    -0.244 OA
ATOM      8  N   UNL     1      42.115  74.042  40.219  0.00  0.00    -0.105 NA
ATOM      9  F   UNL     1      43.366  75.440  38.195  0.00  0.00    -0.200 F 
ENDROOT
BRANCH   1  11
ATOM     10  C   UNL     1      46.110  78.597  41.892  0.00  0.00    +0.114 C 
ATOM     11  C   UNL     1      44.801  78.946  41.234  0.00  0.00    +0.220 C 
ATOM     12  O   UNL     1      44.030  79.660  42.103  0.00  0.00    -0.323 OA
ATOM     13  C   UNL     1      44.691  80.776  42.527  0.00  0.00    +0.198 C 
ATOM     14  S   UNL     1      46.250  79.977  43.101  0.00  0.00    -0.105 S 
BRANCH  13  15
ATOM     15  C   UNL     1      45.089  81.724  41.439  0.00  0.00    +0.223 C 
ATOM     16  O   UNL     1      45.248  83.026  41.872  0.00  0.00    -0.217 OA
ENDBRANCH  13  15
ENDBRANCH   1  11
TORSDOF 2
