REMARK  Name = Bifonazole
REMARK  4 active torsions:
REMARK  status: ('A' for Active; 'I' for Inactive)
REMARK    1  A    between atoms: C_4  and  C_7
REMARK    2  A    between atoms: C_10  and  C_13
REMARK    3  A    between atoms: C_13  and  C_14
REMARK    4  A    between atoms: C_13  and  N_20
REMARK                            x       y       z     vdW  Elec       q    Type
REMARK                         _______ _______ _______ _____ _____    ______ ____
ROOT
ATOM      1  C   UNL     1      48.607  82.388  42.182  0.00  0.00    -0.000 A 
ATOM      2  C   UNL     1      47.221  82.316  42.290  0.00  0.00    -0.000 A 
ATOM      3  C   UNL     1      46.516  81.339  41.626  0.00  0.00    -0.002 A 
ATOM      4  C   UNL     1      47.168  80.398  40.831  0.00  0.00    +0.002 A 
ATOM      5  C   UNL     1      48.549  80.460  40.716  0.00  0.00    -0.002 A 
ATOM      6  C   UNL     1      49.213  81.449  41.394  0.00  0.00    -0.000 A 
ENDROOT
BRANCH   1  10
ATOM      7  C   UNL     1      50.682  85.465  44.288  0.00  0.00    +0.000 A 
ATOM      8  C   UNL     1      51.361  84.392  43.736  0.00  0.00    +0.000 A 
ATOM      9  C   UNL     1      50.684  83.400  43.056  0.00  0.00    -0.000 A 
ATOM     10  C   UNL     1      49.314  83.431  42.897  0.00  0.00    -0.000 A 
ATOM     11  C   UNL     1      48.644  84.503  43.449  0.00  0.00    -0.000 A 
ATOM     12  C   UNL     1      49.312  85.500  44.131  0.00  0.00    +0.000 A 
ENDBRANCH   1  10
BRANCH   4  13
ATOM     13  C   UNL     1      46.349  79.391  40.154  0.00  0.00    +0.132 C 
BRANCH  13  14
ATOM     14  C   UNL     1      45.669  78.458  41.062  0.00  0.00    +0.002 A 
ATOM     15  C   UNL     1      44.623  77.710  40.584  0.00  0.00    -0.002 A 
ATOM     16  C   UNL     1      43.944  76.810  41.398  0.00  0.00    -0.000 A 
ATOM     17  C   UNL     1      44.337  76.674  42.714  0.00  0.00    -0.000 A 
ATOM     18  C   UNL     1      45.380  77.428  43.171  0.00  0.00    -0.000 A 
ATOM     19  C   UNL     1      46.053  78.317  42.372  0.00  0.00    -0.002 A 
ENDBRANCH  13  14
BRANCH  13  20
ATOM     20  N   UNL     1      45.388  80.066  39.305  0.00  0.00    -0.302 N 
ATOM     21  C   UNL     1      44.072  79.779  39.222  0.00  0.00    +0.098 A 
ATOM     22  C   UNL     1      43.474  80.621  38.320  0.00  0.00    +0.119 A 
ATOM     23  N   UNL     1      44.430  81.430  37.846  0.00  0.00    -0.222 NA
ATOM     24  C   UNL     1      45.571  81.086  38.445  0.00  0.00    +0.179 A 
ENDBRANCH  13  20
ENDBRANCH   4  13
TORSDOF 4
