REMARK  Name = Bimatoprost
REMARK  12 active torsions:
REMARK  status: ('A' for Active; 'I' for Inactive)
REMARK    1  A    between atoms: C_2  and  N_3
REMARK    2  A    between atoms: C_4  and  C_6
REMARK    3  A    between atoms: C_6  and  C_7
REMARK    4  A    between atoms: C_7  and  C_8
REMARK    5  A    between atoms: C_8  and  C_9
REMARK    6  A    between atoms: C_10  and  C_11
REMARK    7  A    between atoms: C_11  and  C_12
REMARK    8  A    between atoms: C_16  and  C_17
REMARK    9  A    between atoms: C_18  and  C_19
REMARK   10  A    between atoms: C_19  and  C_20
REMARK   11  A    between atoms: C_20  and  C_21
REMARK   12  A    between atoms: C_21  and  C_22
REMARK                            x       y       z     vdW  Elec       q    Type
REMARK                         _______ _______ _______ _____ _____    ______ ____
ROOT
ATOM      1  C   UNL     1      44.077  77.761  40.042  0.00  0.00    +0.041 C 
ATOM      2  C   UNL     1      44.815  76.483  40.308  0.00  0.00    +0.155 C 
ATOM      3  C   UNL     1      45.167  76.603  41.767  0.00  0.00    +0.066 C 
ATOM      4  C   UNL     1      45.617  78.024  41.894  0.00  0.00    +0.159 C 
ATOM      5  C   UNL     1      44.663  78.795  41.010  0.00  0.00    +0.055 C 
ATOM      6  O   UNL     1      46.937  78.185  41.550  0.00  0.00    -0.223 OA
ATOM      7  O   UNL     1      45.911  76.353  39.486  0.00  0.00    -0.223 OA
ENDROOT
BRANCH   5   8
ATOM      8  C   UNL     1      45.344  79.820  40.206  0.00  0.00    -0.026 C 
ATOM      9  C   UNL     1      45.051  81.103  40.151  0.00  0.00    +0.002 C 
BRANCH   9  10
ATOM     10  C   UNL     1      45.968  82.087  39.565  0.00  0.00    +0.174 C 
ATOM     11  O   UNL     1      46.838  81.457  38.642  0.00  0.00    -0.218 OA
BRANCH  10  12
ATOM     12  C   UNL     1      46.723  82.931  40.527  0.00  0.00    +0.042 C 
BRANCH  12  13
ATOM     13  C   UNL     1      48.122  82.525  40.822  0.00  0.00    +0.029 C 
BRANCH  13  14
ATOM     14  C   UNL     1      48.732  83.264  41.947  0.00  0.00    -0.022 A 
ATOM     15  C   UNL     1      50.060  83.070  42.248  0.00  0.00    -0.004 A 
ATOM     16  C   UNL     1      50.690  83.741  43.287  0.00  0.00    -0.000 A 
ATOM     17  C   UNL     1      49.959  84.635  44.046  0.00  0.00    -0.000 A 
ATOM     18  C   UNL     1      48.627  84.839  43.754  0.00  0.00    -0.000 A 
ATOM     19  C   UNL     1      48.012  84.152  42.703  0.00  0.00    -0.004 A 
ENDBRANCH  13  14
ENDBRANCH  12  13
ENDBRANCH  10  12
ENDBRANCH   9  10
ENDBRANCH   5   8
BRANCH   1  20
ATOM     20  C   UNL     1      42.584  77.613  40.276  0.00  0.00    +0.029 C 
BRANCH  20  22
ATOM     21  C   UNL     1      41.174  77.060  38.366  0.00  0.00    -0.031 C 
ATOM     22  C   UNL     1      41.932  77.948  38.951  0.00  0.00    -0.031 C 
BRANCH  21  23
ATOM     23  C   UNL     1      40.491  77.248  37.084  0.00  0.00    +0.026 C 
BRANCH  23  24
ATOM     24  C   UNL     1      39.709  76.032  36.685  0.00  0.00    +0.014 C 
BRANCH  24  25
ATOM     25  C   UNL     1      38.966  76.298  35.402  0.00  0.00    +0.087 C 
BRANCH  25  27
ATOM     26  N   UNL     1      38.564  74.221  34.087  0.00  0.00    -0.205 NA
ATOM     27  C   UNL     1      38.089  75.139  35.046  0.00  0.00    +0.241 C 
ATOM     28  O   UNL     1      36.977  75.023  35.603  0.00  0.00    -0.273 OA
BRANCH  26  30
ATOM     29  C   UNL     1      38.546  72.180  32.789  0.00  0.00    +0.025 C 
ATOM     30  C   UNL     1      37.784  73.045  33.783  0.00  0.00    +0.115 C 
ENDBRANCH  26  30
ENDBRANCH  25  27
ENDBRANCH  24  25
ENDBRANCH  23  24
ENDBRANCH  21  23
ENDBRANCH  20  22
ENDBRANCH   1  20
TORSDOF 12
