REMARK  Name = Biolimus_a9
REMARK  11 active torsions:
REMARK  status: ('A' for Active; 'I' for Inactive)
REMARK    1  A    between atoms: C_2  and  O_3
REMARK    2  A    between atoms: O_3  and  C_4
REMARK    3  A    between atoms: C_4  and  C_5
REMARK    4  A    between atoms: C_5  and  O_6
REMARK    5  A    between atoms: O_6  and  C_7
REMARK    6  A    between atoms: C_10  and  C_15
REMARK    7  A    between atoms: C_12  and  O_13
REMARK    8  A    between atoms: C_15  and  C_16
REMARK    9  A    between atoms: C_16  and  C_18
REMARK   10  A    between atoms: C_26  and  O_66
REMARK   11  A    between atoms: C_38  and  O_61
REMARK                            x       y       z     vdW  Elec       q    Type
REMARK                         _______ _______ _______ _____ _____    ______ ____
ROOT
ATOM      1  C   UNL     1      43.548  77.154  40.237  0.00  0.00    +0.176 C 
ATOM      2  C   UNL     1      44.522  76.148  40.869  0.00  0.00    +0.108 C 
ATOM      3  C   UNL     1      44.451  76.148  42.353  0.00  0.00    +0.158 C 
ATOM      4  O   UNL     1      44.570  77.171  42.965  0.00  0.00    -0.296 OA
ATOM      5  C   UNL     1      44.224  74.823  43.019  0.00  0.00    +0.079 C 
ATOM      6  C   UNL     1      45.436  74.047  43.252  0.00  0.00    -0.025 C 
ATOM      7  C   UNL     1      46.295  74.090  44.247  0.00  0.00    -0.015 C 
ATOM      8  C   UNL     1      46.234  74.982  45.432  0.00  0.00    +0.204 C 
ATOM      9  C   UNL     1      47.564  75.060  46.181  0.00  0.00    +0.206 C 
ATOM     10  C   UNL     1      48.358  76.198  45.646  0.00  0.00    +0.180 C 
ATOM     11  O   UNL     1      47.797  77.305  45.569  0.00  0.00    -0.293 OA
ATOM     12  C   UNL     1      49.768  76.120  45.195  0.00  0.00    +0.061 C 
ATOM     13  C   UNL     1      50.359  77.514  45.159  0.00  0.00    +0.012 C 
ATOM     14  C   UNL     1      51.536  77.714  46.051  0.00  0.00    +0.022 C 
ATOM     15  C   UNL     1      52.860  77.469  45.488  0.00  0.00    -0.026 C 
ATOM     16  C   UNL     1      53.348  77.528  44.283  0.00  0.00    -0.005 C 
ATOM     17  C   UNL     1      52.780  77.866  43.004  0.00  0.00    -0.000 C 
ATOM     18  C   UNL     1      52.697  79.010  42.344  0.00  0.00    -0.001 C 
ATOM     19  C   UNL     1      53.154  80.332  42.691  0.00  0.00    -0.006 C 
ATOM     20  C   UNL     1      52.589  81.325  43.341  0.00  0.00    -0.017 C 
ATOM     21  C   UNL     1      51.259  81.434  43.948  0.00  0.00    +0.136 C 
ATOM     22  C   UNL     1      50.192  80.589  43.349  0.00  0.00    +0.063 C 
ATOM     23  C   UNL     1      49.305  81.477  42.451  0.00  0.00    +0.121 C 
ATOM     24  C   UNL     1      50.106  81.779  41.218  0.00  0.00    +0.030 C 
ATOM     25  C   UNL     1      49.254  82.102  40.024  0.00  0.00    +0.008 C 
ATOM     26  C   UNL     1      47.981  81.235  39.971  0.00  0.00    +0.062 C 
ATOM     27  C   UNL     1      47.342  81.377  41.310  0.00  0.00    +0.279 C 
ATOM     28  O   UNL     1      48.185  80.727  42.215  0.00  0.00    -0.329 OA
ATOM     29  C   UNL     1      46.003  80.847  41.482  0.00  0.00    +0.279 C 
ATOM     30  O   UNL     1      45.904  79.821  42.263  0.00  0.00    -0.281 OA
ATOM     31  C   UNL     1      44.738  81.272  40.925  0.00  0.00    +0.289 C 
ATOM     32  O   UNL     1      43.819  81.626  41.784  0.00  0.00    -0.267 OA
ATOM     33  N   UNL     1      44.327  81.366  39.587  0.00  0.00    -0.265 N 
ATOM     34  C   UNL     1      43.763  82.654  39.134  0.00  0.00    +0.094 C 
ATOM     35  C   UNL     1      44.700  83.190  38.106  0.00  0.00    +0.022 C 
ATOM     36  C   UNL     1      44.653  82.205  36.941  0.00  0.00    +0.004 C 
ATOM     37  C   UNL     1      45.045  80.834  37.346  0.00  0.00    +0.031 C 
ATOM     38  C   UNL     1      44.345  80.360  38.568  0.00  0.00    +0.175 C 
ATOM     39  C   UNL     1      44.797  79.017  39.019  0.00  0.00    +0.335 C 
ATOM     40  O   UNL     1      45.844  78.625  38.372  0.00  0.00    -0.248 OA
ATOM     41  O   UNL     1      44.249  78.276  39.949  0.00  0.00    -0.451 OA
ATOM     42  O   UNL     1      47.452  82.748  41.651  0.00  0.00    -0.187 OA
ATOM     43  C   UNL     1      48.508  79.818  39.753  0.00  0.00    +0.006 C 
ATOM     44  C   UNL     1      53.446  82.583  43.537  0.00  0.00    +0.029 C 
ATOM     45  C   UNL     1      51.426  79.038  46.770  0.00  0.00    +0.005 C 
ATOM     46  C   UNL     1      50.515  75.176  46.074  0.00  0.00    +0.008 C 
ATOM     47  O   UNL     1      45.322  74.474  46.371  0.00  0.00    -0.216 OA
ATOM     48  C   UNL     1      47.485  73.150  44.245  0.00  0.00    +0.029 C 
ATOM     49  C   UNL     1      43.319  75.005  44.219  0.00  0.00    +0.012 C 
ENDROOT
BRANCH   1  50
ATOM     50  C   UNL     1      42.805  76.479  39.099  0.00  0.00    +0.041 C 
ATOM     51  C   UNL     1      43.583  76.328  37.851  0.00  0.00    +0.004 C 
BRANCH  50  52
ATOM     52  C   UNL     1      41.393  76.970  38.973  0.00  0.00    +0.004 C 
BRANCH  52  56
ATOM     53  C   UNL     1      38.578  74.495  37.151  0.00  0.00    +0.142 C 
ATOM     54  C   UNL     1      38.604  75.866  36.569  0.00  0.00    +0.032 C 
ATOM     55  C   UNL     1      39.832  76.636  37.020  0.00  0.00    +0.003 C 
ATOM     56  C   UNL     1      40.431  76.100  38.276  0.00  0.00    +0.003 C 
ATOM     57  C   UNL     1      39.267  75.748  39.200  0.00  0.00    +0.032 C 
ATOM     58  C   UNL     1      38.559  74.508  38.675  0.00  0.00    +0.142 C 
BRANCH  58  59
ATOM     59  O   UNL     1      39.306  73.416  39.104  0.00  0.00    -0.351 OA
ATOM     60  C   UNL     1      39.235  73.183  40.460  0.00  0.00    +0.174 C 
ENDBRANCH  58  59
BRANCH  53  61
ATOM     61  O   UNL     1      39.618  73.723  36.715  0.00  0.00    -0.351 OA
BRANCH  61  62
ATOM     62  C   UNL     1      39.294  72.642  35.943  0.00  0.00    +0.174 C 
BRANCH  62  63
ATOM     63  C   UNL     1      37.870  72.614  35.455  0.00  0.00    +0.174 C 
BRANCH  63  64
ATOM     64  O   UNL     1      37.927  72.675  34.048  0.00  0.00    -0.351 OA
BRANCH  64  66
ATOM     65  C   UNL     1      35.855  71.968  33.068  0.00  0.00    +0.035 C 
ATOM     66  C   UNL     1      37.242  71.569  33.537  0.00  0.00    +0.142 C 
ENDBRANCH  64  66
ENDBRANCH  63  64
ENDBRANCH  62  63
ENDBRANCH  61  62
ENDBRANCH  53  61
ENDBRANCH  52  56
ENDBRANCH  50  52
ENDBRANCH   1  50
BRANCH  21  67
ATOM     67  O   UNL     1      50.862  82.800  43.804  0.00  0.00    -0.349 OA
ATOM     68  C   UNL     1      51.454  83.616  44.740  0.00  0.00    +0.174 C 
ENDBRANCH  21  67
BRANCH   9  69
ATOM     69  O   UNL     1      47.214  75.368  47.508  0.00  0.00    -0.343 OA
ATOM     70  C   UNL     1      48.092  74.883  48.444  0.00  0.00    +0.175 C 
ENDBRANCH   9  69
TORSDOF 11
