REMARK  Name = Bisoprolol
REMARK  12 active torsions:
REMARK  status: ('A' for Active; 'I' for Inactive)
REMARK    1  A    between atoms: C_2  and  N_4
REMARK    2  A    between atoms: N_4  and  C_5
REMARK    3  A    between atoms: C_5  and  C_6
REMARK    4  A    between atoms: C_6  and  C_7
REMARK    5  A    between atoms: C_7  and  O_8
REMARK    6  A    between atoms: O_8  and  C_9
REMARK    7  A    between atoms: C_12  and  C_15
REMARK    8  A    between atoms: C_15  and  O_16
REMARK    9  A    between atoms: O_16  and  C_17
REMARK   10  A    between atoms: C_17  and  C_18
REMARK   11  A    between atoms: C_18  and  O_19
REMARK   12  A    between atoms: O_19  and  C_20
REMARK                            x       y       z     vdW  Elec       q    Type
REMARK                         _______ _______ _______ _____ _____    ______ ____
ROOT
ATOM      1  C   UNL     1      43.254  78.900  38.948  0.00  0.00    +0.139 A 
ATOM      2  C   UNL     1      43.642  78.413  40.160  0.00  0.00    +0.037 A 
ATOM      3  C   UNL     1      44.615  79.007  40.927  0.00  0.00    +0.001 A 
ATOM      4  C   UNL     1      45.223  80.155  40.432  0.00  0.00    +0.007 A 
ATOM      5  C   UNL     1      44.859  80.677  39.214  0.00  0.00    +0.001 A 
ATOM      6  C   UNL     1      43.859  80.027  38.475  0.00  0.00    +0.037 A 
ENDROOT
BRANCH   1   7
ATOM      7  O   UNL     1      42.281  78.275  38.221  0.00  0.00    -0.473 OA
BRANCH   7   8
ATOM      8  C   UNL     1      41.655  77.107  38.710  0.00  0.00    +0.240 C 
BRANCH   8   9
ATOM      9  C   UNL     1      40.359  76.852  37.932  0.00  0.00    +0.213 C 
ATOM     10  O   UNL     1      40.096  77.899  37.084  0.00  0.00    -0.218 OA
BRANCH   9  11
ATOM     11  C   UNL     1      40.600  75.538  37.175  0.00  0.00    +0.125 C 
BRANCH  11  12
ATOM     12  N   UNL     1      39.448  75.358  36.326  0.00  0.00    -0.217 NA
BRANCH  12  14
ATOM     13  C   UNL     1      39.419  72.908  36.175  0.00  0.00    +0.019 C 
ATOM     14  C   UNL     1      39.547  74.212  35.466  0.00  0.00    +0.073 C 
ATOM     15  C   UNL     1      38.478  74.306  34.400  0.00  0.00    +0.019 C 
ENDBRANCH  12  14
ENDBRANCH  11  12
ENDBRANCH   9  11
ENDBRANCH   8   9
ENDBRANCH   7   8
ENDBRANCH   1   7
BRANCH   4  16
ATOM     16  C   UNL     1      46.291  80.797  41.275  0.00  0.00    +0.169 C 
BRANCH  16  17
ATOM     17  O   UNL     1      47.292  81.327  40.509  0.00  0.00    -0.346 OA
BRANCH  17  18
ATOM     18  C   UNL     1      47.429  82.694  40.544  0.00  0.00    +0.175 C 
BRANCH  18  19
ATOM     19  C   UNL     1      48.816  83.050  41.004  0.00  0.00    +0.174 C 
BRANCH  19  20
ATOM     20  O   UNL     1      48.761  83.515  42.303  0.00  0.00    -0.354 OA
BRANCH  20  21
ATOM     21  C   UNL     1      49.975  83.335  42.931  0.00  0.00    +0.115 C 
ATOM     22  C   UNL     1      50.078  84.354  44.057  0.00  0.00    +0.032 C 
ATOM     23  C   UNL     1      51.065  83.590  41.892  0.00  0.00    +0.032 C 
ENDBRANCH  20  21
ENDBRANCH  19  20
ENDBRANCH  18  19
ENDBRANCH  17  18
ENDBRANCH  16  17
ENDBRANCH   4  16
TORSDOF 12
