REMARK  Name = Bleomycin
REMARK  36 active torsions:
REMARK  status: ('A' for Active; 'I' for Inactive)
REMARK    1  A    between atoms: C_3  and  C_21
REMARK    2  A    between atoms: C_5  and  C_9
REMARK    3  A    between atoms: C_9  and  C_10
REMARK    4  A    between atoms: C_9  and  N_14
REMARK    5  A    between atoms: C_10  and  C_11
REMARK    6  A    between atoms: N_14  and  C_15
REMARK    7  A    between atoms: C_15  and  C_16
REMARK    8  A    between atoms: C_16  and  C_17
REMARK    9  A    between atoms: N_23  and  C_24
REMARK   10  A    between atoms: C_24  and  C_25
REMARK   11  A    between atoms: C_24  and  C_57
REMARK   12  A    between atoms: C_25  and  C_26
REMARK   13  A    between atoms: C_25  and  O_31
REMARK   14  A    between atoms: O_31  and  C_32
REMARK   15  A    between atoms: C_33  and  O_42
REMARK   16  A    between atoms: C_36  and  C_38
REMARK   17  A    between atoms: O_42  and  C_43
REMARK   18  A    between atoms: C_45  and  O_52
REMARK   19  A    between atoms: C_47  and  C_49
REMARK   20  A    between atoms: O_52  and  C_53
REMARK   21  A    between atoms: N_59  and  C_60
REMARK   22  A    between atoms: C_60  and  C_62
REMARK   23  A    between atoms: C_62  and  C_63
REMARK   24  A    between atoms: C_63  and  C_65
REMARK   25  A    between atoms: N_67  and  C_68
REMARK   26  A    between atoms: C_68  and  C_69
REMARK   27  A    between atoms: C_68  and  C_72
REMARK   28  A    between atoms: N_74  and  C_75
REMARK   29  A    between atoms: C_75  and  C_76
REMARK   30  A    between atoms: C_76  and  C_77
REMARK   31  A    between atoms: C_79  and  C_82
REMARK   32  A    between atoms: C_84  and  C_87
REMARK   33  A    between atoms: N_89  and  C_90
REMARK   34  A    between atoms: C_90  and  C_91
REMARK   35  A    between atoms: C_91  and  C_92
REMARK   36  A    between atoms: C_92  and  S_93
REMARK                            x       y       z     vdW  Elec       q    Type
REMARK                         _______ _______ _______ _____ _____    ______ ____
ROOT
ATOM      1  C   UNL     1      43.985  76.488  41.185  0.00  0.00    +0.206 C 
ENDROOT
BRANCH   1   2
ATOM      2  C   UNL     1      44.989  75.552  41.906  0.00  0.00    +0.264 C 
ATOM      3  O   UNL     1      45.777  74.819  41.311  0.00  0.00    -0.271 OA
ATOM      4  N   UNL     1      45.045  75.691  43.285  0.00  0.00    -0.203 NA
BRANCH   4   5
ATOM      5  C   UNL     1      46.048  75.011  44.128  0.00  0.00    +0.126 C 
ATOM      6  C   UNL     1      46.038  75.519  45.572  0.00  0.00    +0.026 C 
BRANCH   5   7
ATOM      7  C   UNL     1      45.954  73.450  44.034  0.00  0.00    +0.180 C 
ATOM      8  O   UNL     1      44.987  73.016  43.061  0.00  0.00    -0.221 OA
BRANCH   7   9
ATOM      9  C   UNL     1      47.298  72.799  43.649  0.00  0.00    +0.110 C 
ATOM     10  C   UNL     1      47.727  73.139  42.217  0.00  0.00    +0.012 C 
BRANCH   9  11
ATOM     11  C   UNL     1      47.222  71.293  43.783  0.00  0.00    +0.244 C 
ATOM     12  O   UNL     1      46.687  70.568  42.952  0.00  0.00    -0.273 OA
ATOM     13  N   UNL     1      47.842  70.805  44.911  0.00  0.00    -0.195 NA
BRANCH  13  14
ATOM     14  C   UNL     1      47.820  69.369  45.206  0.00  0.00    +0.203 C 
BRANCH  14  15
ATOM     15  C   UNL     1      48.215  69.212  46.688  0.00  0.00    +0.264 C 
ATOM     16  O   UNL     1      49.342  69.474  47.109  0.00  0.00    -0.271 OA
ATOM     17  N   UNL     1      47.195  68.718  47.484  0.00  0.00    -0.203 NA
BRANCH  17  18
ATOM     18  C   UNL     1      47.337  68.680  48.942  0.00  0.00    +0.122 C 
BRANCH  18  19
ATOM     19  C   UNL     1      48.470  69.579  49.424  0.00  0.00    +0.076 C 
BRANCH  19  20
ATOM     20  C   UNL     1      47.924  70.788  50.116  0.00  0.00    +0.090 A 
ATOM     21  N   UNL     1      48.655  71.771  50.584  0.00  0.00    -0.241 NA
ATOM     22  C   UNL     1      47.833  72.810  51.008  0.00  0.00    +0.112 A 
ATOM     23  C   UNL     1      46.483  72.544  50.948  0.00  0.00    +0.058 A 
ATOM     24  S   UNL     1      46.220  70.981  50.304  0.00  0.00    -0.070 S 
BRANCH  22  25
ATOM     25  C   UNL     1      48.441  74.201  51.472  0.00  0.00    +0.129 A 
ATOM     26  N   UNL     1      47.667  75.191  51.863  0.00  0.00    -0.232 NA
ATOM     27  C   UNL     1      48.450  76.249  52.331  0.00  0.00    +0.143 A 
ATOM     28  C   UNL     1      49.814  76.049  52.193  0.00  0.00    +0.061 A 
ATOM     29  S   UNL     1      50.135  74.515  51.510  0.00  0.00    -0.064 S 
BRANCH  27  30
ATOM     30  C   UNL     1      47.874  77.468  52.915  0.00  0.00    +0.283 C 
ATOM     31  O   UNL     1      46.660  77.646  52.981  0.00  0.00    -0.267 OA
ATOM     32  N   UNL     1      48.795  78.379  53.377  0.00  0.00    -0.200 NA
BRANCH  32  33
ATOM     33  C   UNL     1      48.491  79.779  53.515  0.00  0.00    +0.116 C 
BRANCH  33  34
ATOM     34  C   UNL     1      48.700  80.550  52.212  0.00  0.00    +0.034 C 
BRANCH  34  35
ATOM     35  C   UNL     1      48.338  82.019  52.397  0.00  0.00    +0.050 C 
BRANCH  35  36
ATOM     36  S   UNL     1      48.628  83.162  51.019  0.00  0.00    -0.178 S 
ATOM     37  C   UNL     1      48.910  84.702  51.908  0.00  0.00    +0.059 C 
ATOM     38  C   UNL     1      46.910  83.479  50.564  0.00  0.00    +0.059 C 
ENDBRANCH  35  36
ENDBRANCH  34  35
ENDBRANCH  33  34
ENDBRANCH  32  33
ENDBRANCH  27  30
ENDBRANCH  22  25
ENDBRANCH  19  20
ENDBRANCH  18  19
ENDBRANCH  17  18
ENDBRANCH  14  15
BRANCH  14  39
ATOM     39  C   UNL     1      48.811  68.593  44.315  0.00  0.00    +0.181 C 
ATOM     40  C   UNL     1      50.244  69.075  44.517  0.00  0.00    +0.038 C 
ATOM     41  O   UNL     1      48.769  67.190  44.604  0.00  0.00    -0.221 OA
ENDBRANCH  14  39
ENDBRANCH  13  14
ENDBRANCH   9  11
ENDBRANCH   7   9
ENDBRANCH   5   7
ENDBRANCH   4   5
ENDBRANCH   1   2
BRANCH   1  44
ATOM     42  C   UNL     1      44.428  78.843  40.444  0.00  0.00    +0.283 C 
ATOM     43  O   UNL     1      43.344  79.280  40.782  0.00  0.00    -0.267 OA
ATOM     44  N   UNL     1      44.770  77.508  40.447  0.00  0.00    -0.190 NA
BRANCH  42  47
ATOM     45  C   UNL     1      43.761  81.295  38.942  0.00  0.00    +0.036 C 
ATOM     46  C   UNL     1      45.168  80.918  39.261  0.00  0.00    +0.035 A 
ATOM     47  C   UNL     1      45.500  79.758  39.933  0.00  0.00    +0.136 A 
ATOM     48  N   UNL     1      46.763  79.376  40.249  0.00  0.00    -0.225 NA
ATOM     49  C   UNL     1      47.722  80.252  39.919  0.00  0.00    +0.157 A 
ATOM     50  N   UNL     1      47.498  81.383  39.242  0.00  0.00    -0.212 NA
ATOM     51  C   UNL     1      46.245  81.690  38.894  0.00  0.00    +0.169 A 
ATOM     52  N   UNL     1      46.098  82.894  38.219  0.00  0.00    -0.107 NA
BRANCH  49  53
ATOM     53  C   UNL     1      49.164  79.943  40.348  0.00  0.00    +0.140 C 
BRANCH  53  54
ATOM     54  N   UNL     1      49.675  80.814  41.437  0.00  0.00    -0.209 NA
BRANCH  54  55
ATOM     55  C   UNL     1      49.070  80.491  42.736  0.00  0.00    +0.118 C 
BRANCH  55  56
ATOM     56  C   UNL     1      49.576  81.406  43.880  0.00  0.00    +0.188 C 
ATOM     57  N   UNL     1      48.735  81.241  45.086  0.00  0.00    -0.121 NA
BRANCH  56  58
ATOM     58  C   UNL     1      49.582  82.862  43.398  0.00  0.00    +0.280 C 
ATOM     59  O   UNL     1      48.562  83.540  43.245  0.00  0.00    -0.270 OA
ATOM     60  N   UNL     1      50.808  83.363  43.057  0.00  0.00    -0.086 NA
ENDBRANCH  56  58
ENDBRANCH  55  56
ENDBRANCH  54  55
ENDBRANCH  53  54
BRANCH  53  61
ATOM     61  C   UNL     1      49.364  78.442  40.614  0.00  0.00    +0.114 C 
BRANCH  61  62
ATOM     62  C   UNL     1      48.964  77.469  39.521  0.00  0.00    +0.263 C 
ATOM     63  O   UNL     1      48.966  76.246  39.592  0.00  0.00    -0.272 OA
ATOM     64  N   UNL     1      48.677  78.082  38.327  0.00  0.00    -0.088 NA
ENDBRANCH  61  62
ENDBRANCH  53  61
ENDBRANCH  49  53
ENDBRANCH  42  47
ENDBRANCH   1  44
BRANCH   1  65
ATOM     65  C   UNL     1      43.024  75.694  40.228  0.00  0.00    +0.188 C 
BRANCH  65  66
ATOM     66  C   UNL     1      42.304  74.514  40.842  0.00  0.00    +0.109 A 
ATOM     67  C   UNL     1      42.271  73.168  40.532  0.00  0.00    +0.118 A 
ATOM     68  N   UNL     1      41.559  72.450  41.460  0.00  0.00    -0.221 NA
ATOM     69  C   UNL     1      41.044  73.344  42.256  0.00  0.00    +0.199 A 
ATOM     70  N   UNL     1      41.522  74.593  41.978  0.00  0.00    -0.224 NA
ENDBRANCH  65  66
BRANCH  65  71
ATOM     71  O   UNL     1      41.964  76.573  39.796  0.00  0.00    -0.323 OA
BRANCH  71  72
ATOM     72  C   UNL     1      41.053  76.031  38.818  0.00  0.00    +0.267 C 
ATOM     73  C   UNL     1      39.683  76.740  38.973  0.00  0.00    +0.207 C 
ATOM     74  C   UNL     1      39.674  78.006  38.116  0.00  0.00    +0.217 C 
ATOM     75  C   UNL     1      39.806  77.644  36.637  0.00  0.00    +0.214 C 
ATOM     76  C   UNL     1      40.829  76.514  36.407  0.00  0.00    +0.183 C 
ATOM     77  O   UNL     1      41.676  76.284  37.546  0.00  0.00    -0.326 OA
ATOM     78  O   UNL     1      40.202  78.822  35.915  0.00  0.00    -0.218 OA
ATOM     79  O   UNL     1      40.724  78.929  38.461  0.00  0.00    -0.218 OA
BRANCH  76  80
ATOM     80  C   UNL     1      40.172  75.218  35.899  0.00  0.00    +0.214 C 
ATOM     81  O   UNL     1      40.991  74.595  34.905  0.00  0.00    -0.218 OA
ENDBRANCH  76  80
BRANCH  73  82
ATOM     82  O   UNL     1      38.646  75.859  38.525  0.00  0.00    -0.323 OA
BRANCH  82  83
ATOM     83  C   UNL     1      37.365  76.104  39.096  0.00  0.00    +0.271 C 
ATOM     84  C   UNL     1      36.960  74.930  40.035  0.00  0.00    +0.250 C 
ATOM     85  C   UNL     1      35.424  74.811  40.162  0.00  0.00    +0.238 C 
ATOM     86  C   UNL     1      34.769  76.173  39.911  0.00  0.00    +0.224 C 
ATOM     87  C   UNL     1      35.139  76.707  38.497  0.00  0.00    +0.185 C 
ATOM     88  O   UNL     1      36.420  76.250  38.041  0.00  0.00    -0.326 OA
ATOM     89  O   UNL     1      35.203  77.075  40.944  0.00  0.00    -0.216 OA
ATOM     90  O   UNL     1      37.548  73.682  39.633  0.00  0.00    -0.214 OA
BRANCH  87  91
ATOM     91  C   UNL     1      35.084  78.239  38.383  0.00  0.00    +0.214 C 
ATOM     92  O   UNL     1      34.033  78.778  39.170  0.00  0.00    -0.218 OA
ENDBRANCH  87  91
BRANCH  85  93
ATOM     93  O   UNL     1      34.966  73.808  39.215  0.00  0.00    -0.431 OA
BRANCH  93  94
ATOM     94  C   UNL     1      35.152  72.527  39.589  0.00  0.00    +0.441 C 
ATOM     95  O   UNL     1      35.650  72.152  40.638  0.00  0.00    -0.223 OA
ATOM     96  N   UNL     1      34.727  71.701  38.616  0.00  0.00    -0.048 NA
ENDBRANCH  93  94
ENDBRANCH  85  93
ENDBRANCH  82  83
ENDBRANCH  73  82
ENDBRANCH  71  72
ENDBRANCH  65  71
ENDBRANCH   1  65
TORSDOF 36
