REMARK  Name = BOCEPREVIR
REMARK  10 active torsions:
REMARK  status: ('A' for Active; 'I' for Inactive)
REMARK    1  A    between atoms: C_5  and  C_23
REMARK    2  A    between atoms: C_8  and  C_10
REMARK    3  A    between atoms: C_10  and  C_11
REMARK    4  A    between atoms: C_10  and  N_15
REMARK    5  A    between atoms: N_18  and  C_19
REMARK    6  A    between atoms: N_25  and  C_26
REMARK    7  A    between atoms: C_26  and  C_27
REMARK    8  A    between atoms: C_26  and  C_32
REMARK    9  A    between atoms: C_27  and  C_28
REMARK   10  A    between atoms: C_32  and  C_34
REMARK                            x       y       z     vdW  Elec       q    Type
REMARK                         _______ _______ _______ _____ _____    ______ ____
ROOT
ATOM      1  C   UNL     1      46.229  75.635  44.752  0.00  0.00    +0.000 C 
ATOM      2  C   UNL     1      45.763  76.822  43.918  0.00  0.00    +0.004 C 
ATOM      3  C   UNL     1      44.836  76.501  42.818  0.00  0.00    +0.022 C 
ATOM      4  C   UNL     1      46.305  76.865  42.553  0.00  0.00    +0.029 C 
ATOM      5  C   UNL     1      46.277  77.973  41.628  0.00  0.00    +0.153 C 
ATOM      6  N   UNL     1      44.898  78.106  41.121  0.00  0.00    -0.272 N 
ATOM      7  C   UNL     1      44.036  77.498  42.051  0.00  0.00    +0.094 C 
ATOM      8  C   UNL     1      44.664  78.785  39.922  0.00  0.00    +0.246 C 
ATOM      9  O   UNL     1      45.826  79.148  39.325  0.00  0.00    -0.273 OA
ATOM     10  C   UNL     1      45.480  78.025  44.761  0.00  0.00    +0.000 C 
ENDROOT
BRANCH   5  11
ATOM     11  C   UNL     1      46.792  79.287  42.076  0.00  0.00    +0.260 C 
ATOM     12  O   UNL     1      46.025  80.275  42.197  0.00  0.00    -0.272 OA
ATOM     13  N   UNL     1      48.172  79.386  42.360  0.00  0.00    -0.198 NA
BRANCH  13  14
ATOM     14  C   UNL     1      48.805  80.622  42.790  0.00  0.00    +0.161 C 
BRANCH  14  15
ATOM     15  C   UNL     1      50.291  80.444  42.788  0.00  0.00    +0.249 C 
ATOM     16  O   UNL     1      50.822  79.915  41.769  0.00  0.00    -0.285 OA
BRANCH  15  17
ATOM     17  C   UNL     1      51.122  80.840  43.884  0.00  0.00    +0.321 C 
ATOM     18  O   UNL     1      50.744  81.703  44.713  0.00  0.00    -0.263 OA
ATOM     19  N   UNL     1      52.436  80.253  44.071  0.00  0.00    -0.081 NA
ENDBRANCH  15  17
ENDBRANCH  14  15
BRANCH  14  20
ATOM     20  C   UNL     1      48.521  81.790  41.902  0.00  0.00    +0.030 C 
BRANCH  20  21
ATOM     21  C   UNL     1      49.132  83.093  42.230  0.00  0.00    +0.002 C 
ATOM     22  C   UNL     1      48.378  84.081  43.059  0.00  0.00    +0.000 C 
ATOM     23  C   UNL     1      47.802  84.708  41.771  0.00  0.00    +0.000 C 
ATOM     24  C   UNL     1      49.009  84.102  41.060  0.00  0.00    +0.000 C 
ENDBRANCH  20  21
ENDBRANCH  14  20
ENDBRANCH  13  14
ENDBRANCH   5  11
BRANCH   8  25
ATOM     25  C   UNL     1      43.551  79.212  39.142  0.00  0.00    +0.173 C 
BRANCH  25  26
ATOM     26  C   UNL     1      43.473  80.512  38.446  0.00  0.00    +0.027 C 
ATOM     27  C   UNL     1      43.822  81.558  39.569  0.00  0.00    +0.002 C 
ATOM     28  C   UNL     1      44.605  80.762  37.450  0.00  0.00    +0.002 C 
ATOM     29  C   UNL     1      42.135  80.912  37.915  0.00  0.00    +0.002 C 
ENDBRANCH  25  26
BRANCH  25  30
ATOM     30  N   UNL     1      43.089  78.189  38.179  0.00  0.00    -0.180 NA
ATOM     31  C   UNL     1      41.902  77.477  38.377  0.00  0.00    +0.340 C 
ATOM     32  O   UNL     1      41.373  77.400  39.509  0.00  0.00    -0.249 OA
ATOM     33  N   UNL     1      41.204  76.786  37.339  0.00  0.00    -0.191 NA
BRANCH  33  34
ATOM     34  C   UNL     1      40.092  75.909  37.567  0.00  0.00    +0.080 C 
ATOM     35  C   UNL     1      40.456  74.725  38.422  0.00  0.00    +0.022 C 
ATOM     36  C   UNL     1      38.921  76.615  38.224  0.00  0.00    +0.022 C 
ATOM     37  C   UNL     1      39.588  75.441  36.216  0.00  0.00    +0.022 C 
ENDBRANCH  33  34
ENDBRANCH  25  30
ENDBRANCH   8  25
TORSDOF 10
