REMARK  Name = BOL-303259-X
REMARK  19 active torsions:
REMARK  status: ('A' for Active; 'I' for Inactive)
REMARK    1  A    between atoms: C_3  and  C_24
REMARK    2  A    between atoms: C_4  and  C_7
REMARK    3  A    between atoms: C_7  and  C_8
REMARK    4  A    between atoms: C_9  and  C_10
REMARK    5  A    between atoms: C_10  and  C_11
REMARK    6  A    between atoms: C_11  and  C_12
REMARK    7  A    between atoms: C_12  and  C_13
REMARK    8  A    between atoms: C_13  and  O_15
REMARK    9  A    between atoms: O_15  and  C_16
REMARK   10  A    between atoms: C_16  and  C_17
REMARK   11  A    between atoms: C_17  and  C_18
REMARK   12  A    between atoms: C_18  and  C_19
REMARK   13  A    between atoms: C_19  and  O_20
REMARK   14  A    between atoms: O_20  and  N_21
REMARK   15  A    between atoms: C_24  and  C_25
REMARK   16  A    between atoms: C_25  and  C_26
REMARK   17  A    between atoms: C_26  and  C_27
REMARK   18  A    between atoms: C_27  and  C_28
REMARK   19  A    between atoms: C_28  and  C_29
REMARK                            x       y       z     vdW  Elec       q    Type
REMARK                         _______ _______ _______ _____ _____    ______ ____
ROOT
ATOM      1  C   UNL     1      42.671  80.276  38.114  0.00  0.00    +0.066 C 
ATOM      2  C   UNL     1      44.180  80.292  38.160  0.00  0.00    +0.155 C 
ATOM      3  C   UNL     1      44.595  79.540  39.398  0.00  0.00    +0.033 C 
ATOM      4  C   UNL     1      43.445  78.627  39.653  0.00  0.00    +0.037 C 
ATOM      5  C   UNL     1      42.202  79.387  39.217  0.00  0.00    +0.155 C 
ATOM      6  O   UNL     1      41.627  80.076  40.278  0.00  0.00    -0.223 OA
ATOM      7  O   UNL     1      44.736  79.735  37.006  0.00  0.00    -0.223 OA
ENDROOT
BRANCH   3   8
ATOM      8  C   UNL     1      44.808  80.570  40.505  0.00  0.00    +0.005 C 
BRANCH   8   9
ATOM      9  C   UNL     1      46.211  81.014  40.584  0.00  0.00    +0.033 C 
BRANCH   9  10
ATOM     10  C   UNL     1      46.667  81.500  41.890  0.00  0.00    +0.152 C 
ATOM     11  O   UNL     1      45.714  82.479  42.336  0.00  0.00    -0.223 OA
BRANCH  10  12
ATOM     12  C   UNL     1      47.995  82.012  42.174  0.00  0.00    +0.038 C 
BRANCH  12  13
ATOM     13  C   UNL     1      48.224  83.142  43.119  0.00  0.00    +0.029 C 
BRANCH  13  14
ATOM     14  C   UNL     1      49.728  83.392  43.211  0.00  0.00    -0.022 A 
ATOM     15  C   UNL     1      50.216  84.156  44.225  0.00  0.00    -0.004 A 
ATOM     16  C   UNL     1      51.593  84.388  44.338  0.00  0.00    -0.000 A 
ATOM     17  C   UNL     1      52.432  83.830  43.406  0.00  0.00    -0.000 A 
ATOM     18  C   UNL     1      51.903  83.067  42.398  0.00  0.00    -0.000 A 
ATOM     19  C   UNL     1      50.549  82.829  42.275  0.00  0.00    -0.004 A 
ENDBRANCH  13  14
ENDBRANCH  12  13
ENDBRANCH  10  12
ENDBRANCH   9  10
ENDBRANCH   8   9
ENDBRANCH   3   8
BRANCH   4  20
ATOM     20  C   UNL     1      43.554  77.429  38.718  0.00  0.00    +0.028 C 
BRANCH  20  21
ATOM     21  C   UNL     1      43.899  76.195  39.484  0.00  0.00    -0.031 C 
ATOM     22  C   UNL     1      44.791  76.326  40.447  0.00  0.00    -0.031 C 
BRANCH  22  23
ATOM     23  C   UNL     1      44.416  76.106  41.853  0.00  0.00    +0.026 C 
BRANCH  23  24
ATOM     24  C   UNL     1      45.602  75.548  42.609  0.00  0.00    +0.016 C 
BRANCH  24  25
ATOM     25  C   UNL     1      45.209  75.323  44.067  0.00  0.00    +0.110 C 
BRANCH  25  26
ATOM     26  C   UNL     1      46.435  74.933  44.797  0.00  0.00    +0.317 C 
ATOM     27  O   UNL     1      46.604  75.366  45.958  0.00  0.00    -0.250 OA
BRANCH  26  28
ATOM     28  O   UNL     1      47.351  74.112  44.197  0.00  0.00    -0.448 OA
BRANCH  28  29
ATOM     29  C   UNL     1      48.729  74.108  44.481  0.00  0.00    +0.209 C 
BRANCH  29  30
ATOM     30  C   UNL     1      49.461  73.082  43.629  0.00  0.00    +0.051 C 
BRANCH  30  31
ATOM     31  C   UNL     1      50.914  72.977  44.046  0.00  0.00    +0.054 C 
BRANCH  31  32
ATOM     32  C   UNL     1      51.045  71.608  44.729  0.00  0.00    +0.243 C 
BRANCH  32  33
ATOM     33  O   UNL     1      51.803  70.750  43.864  0.00  0.00    -0.336 OA
BRANCH  33  34
ATOM     34  N   UNL     1      52.171  69.491  44.195  0.00  0.00    +0.218 N 
ATOM     35  O   UNL     1      52.961  68.862  43.481  0.00  0.00    -0.090 OA
ATOM     36  O   UNL     1      51.671  68.903  45.323  0.00  0.00    -0.090 OA
ENDBRANCH  33  34
ENDBRANCH  32  33
ENDBRANCH  31  32
ENDBRANCH  30  31
ENDBRANCH  29  30
ENDBRANCH  28  29
ENDBRANCH  26  28
ENDBRANCH  25  26
ENDBRANCH  24  25
ENDBRANCH  23  24
ENDBRANCH  22  23
ENDBRANCH  20  21
ENDBRANCH   4  20
TORSDOF 19
