REMARK  Name = Bopindolol
REMARK  9 active torsions:
REMARK  status: ('A' for Active; 'I' for Inactive)
REMARK    1  A    between atoms: C_10  and  O_11
REMARK    2  A    between atoms: O_11  and  C_12
REMARK    3  A    between atoms: C_12  and  C_13
REMARK    4  A    between atoms: C_13  and  C_14
REMARK    5  A    between atoms: C_13  and  O_20
REMARK    6  A    between atoms: C_14  and  N_15
REMARK    7  A    between atoms: N_15  and  C_16
REMARK    8  A    between atoms: O_20  and  C_21
REMARK    9  A    between atoms: C_21  and  C_23
REMARK                            x       y       z     vdW  Elec       q    Type
REMARK                         _______ _______ _______ _____ _____    ______ ____
ROOT
ATOM      1  C   UNL     1      47.483  79.048  42.288  0.00  0.00    +0.230 C 
ENDROOT
BRANCH   1   2
ATOM      2  C   UNL     1      47.124  79.523  40.897  0.00  0.00    +0.250 C 
BRANCH   2   3
ATOM      3  O   UNL     1      46.056  80.448  40.918  0.00  0.00    -0.471 OA
BRANCH   3  13
ATOM      4  C   UNL     1      41.923  78.377  37.716  0.00  0.00    +0.052 C 
ATOM      5  C   UNL     1      43.000  79.385  37.991  0.00  0.00    +0.059 A 
ATOM      6  C   UNL     1      43.846  79.452  39.072  0.00  0.00    +0.019 A 
ATOM      7  C   UNL     1      44.697  80.544  38.936  0.00  0.00    +0.053 A 
ATOM      8  C   UNL     1      44.344  81.139  37.742  0.00  0.00    +0.084 A 
ATOM      9  N   UNL     1      43.320  80.418  37.197  0.00  0.00    -0.250 NA
ATOM     10  C   UNL     1      45.018  82.273  37.313  0.00  0.00    +0.019 A 
ATOM     11  C   UNL     1      46.034  82.812  38.063  0.00  0.00    +0.005 A 
ATOM     12  C   UNL     1      46.354  82.187  39.250  0.00  0.00    +0.037 A 
ATOM     13  C   UNL     1      45.715  81.059  39.720  0.00  0.00    +0.140 A 
ENDBRANCH   3  13
ENDBRANCH   2   3
ENDBRANCH   1   2
BRANCH   1  14
ATOM     14  C   UNL     1      46.253  78.454  42.950  0.00  0.00    +0.136 C 
BRANCH  14  15
ATOM     15  N   UNL     1      46.665  77.403  43.804  0.00  0.00    -0.217 NA
BRANCH  15  16
ATOM     16  C   UNL     1      45.706  76.416  44.133  0.00  0.00    +0.060 C 
ATOM     17  C   UNL     1      44.896  75.920  42.968  0.00  0.00    +0.017 C 
ATOM     18  C   UNL     1      44.738  77.004  45.145  0.00  0.00    +0.017 C 
ATOM     19  C   UNL     1      46.330  75.196  44.809  0.00  0.00    +0.017 C 
ENDBRANCH  15  16
ENDBRANCH  14  15
ENDBRANCH   1  14
BRANCH   1  20
ATOM     20  O   UNL     1      47.892  80.138  43.072  0.00  0.00    -0.444 OA
BRANCH  20  21
ATOM     21  C   UNL     1      49.010  80.892  42.813  0.00  0.00    +0.341 C 
ATOM     22  O   UNL     1      49.942  80.411  42.147  0.00  0.00    -0.245 OA
BRANCH  21  23
ATOM     23  C   UNL     1      49.097  82.243  43.315  0.00  0.00    +0.076 A 
ATOM     24  C   UNL     1      50.276  82.948  43.237  0.00  0.00    +0.006 A 
ATOM     25  C   UNL     1      50.433  84.233  43.693  0.00  0.00    +0.000 A 
ATOM     26  C   UNL     1      49.340  84.852  44.265  0.00  0.00    +0.000 A 
ATOM     27  C   UNL     1      48.119  84.193  44.374  0.00  0.00    +0.000 A 
ATOM     28  C   UNL     1      48.023  82.901  43.897  0.00  0.00    +0.006 A 
ENDBRANCH  21  23
ENDBRANCH  20  21
ENDBRANCH   1  20
TORSDOF 9
