REMARK  Name = Bosentan
REMARK  10 active torsions:
REMARK  status: ('A' for Active; 'I' for Inactive)
REMARK    1  A    between atoms: C_2  and  C_5
REMARK    2  A    between atoms: C_8  and  S_11
REMARK    3  A    between atoms: S_11  and  N_14
REMARK    4  A    between atoms: C_16  and  O_31
REMARK    5  A    between atoms: C_17  and  O_27
REMARK    6  A    between atoms: C_19  and  C_21
REMARK    7  A    between atoms: O_27  and  C_28
REMARK    8  A    between atoms: C_28  and  C_29
REMARK    9  A    between atoms: O_31  and  C_32
REMARK   10  A    between atoms: C_37  and  O_38
REMARK                            x       y       z     vdW  Elec       q    Type
REMARK                         _______ _______ _______ _____ _____    ______ ____
ROOT
ATOM      1  N   UNL     1      45.575  80.781  40.393  0.00  0.00    -0.074 NA
ATOM      2  C   UNL     1      45.006  79.518  40.596  0.00  0.00    +0.212 A 
ATOM      3  C   UNL     1      45.410  78.560  41.437  0.00  0.00    +0.233 A 
ATOM      4  C   UNL     1      44.766  77.254  41.448  0.00  0.00    +0.265 A 
ATOM      5  N   UNL     1      43.766  77.086  40.573  0.00  0.00    -0.187 NA
ATOM      6  C   UNL     1      43.344  78.018  39.721  0.00  0.00    +0.203 A 
ATOM      7  N   UNL     1      43.953  79.191  39.740  0.00  0.00    -0.203 NA
ENDROOT
BRANCH   6   8
ATOM      8  C   UNL     1      42.218  77.716  38.837  0.00  0.00    +0.199 A 
ATOM      9  N   UNL     1      41.778  78.550  37.905  0.00  0.00    -0.222 NA
ATOM     10  C   UNL     1      40.771  78.288  37.057  0.00  0.00    +0.102 A 
ATOM     11  C   UNL     1      40.112  77.063  37.130  0.00  0.00    +0.041 A 
ATOM     12  C   UNL     1      40.566  76.204  38.096  0.00  0.00    +0.102 A 
ATOM     13  N   UNL     1      41.586  76.500  38.935  0.00  0.00    -0.222 NA
ENDBRANCH   6   8
BRANCH   1  14
ATOM     14  S   UNL     1      46.421  81.534  39.147  0.00  0.00    +0.094 S 
ATOM     15  O   UNL     1      45.589  82.523  38.411  0.00  0.00    -0.148 OA
ATOM     16  O   UNL     1      47.123  80.639  38.172  0.00  0.00    -0.148 OA
BRANCH  14  20
ATOM     17  C   UNL     1      49.845  83.855  41.182  0.00  0.00    -0.023 A 
ATOM     18  C   UNL     1      48.545  84.005  41.610  0.00  0.00    -0.003 A 
ATOM     19  C   UNL     1      47.472  83.299  41.028  0.00  0.00    +0.020 A 
ATOM     20  C   UNL     1      47.730  82.440  40.006  0.00  0.00    +0.127 A 
ATOM     21  C   UNL     1      49.026  82.286  39.573  0.00  0.00    +0.020 A 
ATOM     22  C   UNL     1      50.077  82.975  40.145  0.00  0.00    -0.003 A 
BRANCH  17  24
ATOM     23  C   UNL     1      51.323  84.184  43.176  0.00  0.00    +0.004 C 
ATOM     24  C   UNL     1      50.979  84.617  41.782  0.00  0.00    +0.019 C 
ATOM     25  C   UNL     1      50.678  86.100  41.780  0.00  0.00    +0.004 C 
ATOM     26  C   UNL     1      52.207  84.353  40.925  0.00  0.00    +0.004 C 
ENDBRANCH  17  24
ENDBRANCH  14  20
ENDBRANCH   1  14
BRANCH   4  27
ATOM     27  O   UNL     1      45.215  76.378  42.291  0.00  0.00    -0.455 OA
BRANCH  27  28
ATOM     28  C   UNL     1      45.574  75.351  43.007  0.00  0.00    +0.243 C 
BRANCH  28  29
ATOM     29  C   UNL     1      44.726  74.082  42.980  0.00  0.00    +0.229 C 
ATOM     30  O   UNL     1      45.170  73.098  43.825  0.00  0.00    -0.216 OA
ENDBRANCH  28  29
ENDBRANCH  27  28
ENDBRANCH   4  27
BRANCH   3  31
ATOM     31  O   UNL     1      46.435  78.678  42.341  0.00  0.00    -0.443 OA
BRANCH  31  32
ATOM     32  C   UNL     1      47.738  78.347  41.909  0.00  0.00    +0.179 A 
ATOM     33  C   UNL     1      48.057  77.291  41.114  0.00  0.00    +0.041 A 
ATOM     34  C   UNL     1      49.348  77.031  40.738  0.00  0.00    +0.003 A 
ATOM     35  C   UNL     1      50.339  77.870  41.185  0.00  0.00    +0.003 A 
ATOM     36  C   UNL     1      50.064  78.942  41.986  0.00  0.00    +0.040 A 
ATOM     37  C   UNL     1      48.746  79.232  42.389  0.00  0.00    +0.173 A 
BRANCH  37  38
ATOM     38  O   UNL     1      48.414  80.224  43.146  0.00  0.00    -0.468 OA
ATOM     39  C   UNL     1      48.377  81.308  43.828  0.00  0.00    +0.253 C 
ENDBRANCH  37  38
ENDBRANCH  31  32
ENDBRANCH   3  31
TORSDOF 10
