REMARK  Name = Bosutinib
REMARK  10 active torsions:
REMARK  status: ('A' for Active; 'I' for Inactive)
REMARK    1  A    between atoms: N_5  and  C_8
REMARK    2  A    between atoms: C_8  and  C_9
REMARK    3  A    between atoms: C_9  and  C_10
REMARK    4  A    between atoms: C_10  and  O_11
REMARK    5  A    between atoms: O_11  and  C_12
REMARK    6  A    between atoms: C_13  and  O_35
REMARK    7  A    between atoms: C_20  and  C_33
REMARK    8  A    between atoms: C_21  and  N_22
REMARK    9  A    between atoms: N_22  and  C_23
REMARK   10  A    between atoms: C_25  and  O_31
REMARK                            x       y       z     vdW  Elec       q    Type
REMARK                         _______ _______ _______ _____ _____    ______ ____
ROOT
ATOM      1  C   UNL     1      43.736  79.028  39.402  0.00  0.00    +0.174 A 
ATOM      2  C   UNL     1      44.327  78.838  40.678  0.00  0.00    +0.173 A 
ATOM      3  C   UNL     1      45.339  79.698  41.074  0.00  0.00    +0.043 A 
ATOM      4  C   UNL     1      45.763  80.707  40.254  0.00  0.00    +0.037 A 
ATOM      5  C   UNL     1      45.187  80.904  39.002  0.00  0.00    +0.086 A 
ATOM      6  C   UNL     1      44.160  80.050  38.575  0.00  0.00    +0.059 A 
ATOM      7  N   UNL     1      45.595  81.878  38.174  0.00  0.00    -0.243 NA
ATOM      8  C   UNL     1      46.594  82.695  38.559  0.00  0.00    +0.110 A 
ATOM      9  C   UNL     1      47.190  82.526  39.795  0.00  0.00    +0.103 A 
ATOM     10  C   UNL     1      46.805  81.538  40.683  0.00  0.00    +0.083 A 
ENDROOT
BRANCH   9  11
ATOM     11  C   UNL     1      48.241  83.395  40.242  0.00  0.00    +0.103 C 
ATOM     12  N   UNL     1      49.097  84.099  40.610  0.00  0.00    -0.191 NA
ENDBRANCH   9  11
BRANCH   2  13
ATOM     13  O   UNL     1      43.892  77.848  41.450  0.00  0.00    -0.468 OA
ATOM     14  C   UNL     1      44.316  77.300  42.610  0.00  0.00    +0.253 C 
ENDBRANCH   2  13
BRANCH   1  15
ATOM     15  O   UNL     1      42.779  78.168  39.084  0.00  0.00    -0.472 OA
BRANCH  15  16
ATOM     16  C   UNL     1      42.081  77.233  38.560  0.00  0.00    +0.207 C 
BRANCH  16  17
ATOM     17  C   UNL     1      41.108  77.459  37.421  0.00  0.00    +0.065 C 
BRANCH  17  18
ATOM     18  C   UNL     1      39.821  76.756  37.661  0.00  0.00    +0.076 C 
BRANCH  18  23
ATOM     19  C   UNL     1      37.831  73.800  34.122  0.00  0.00    +0.090 C 
ATOM     20  N   UNL     1      38.557  73.507  35.358  0.00  0.00    -0.269 NA
ATOM     21  C   UNL     1      37.851  74.060  36.501  0.00  0.00    +0.090 C 
ATOM     22  C   UNL     1      38.031  75.587  36.519  0.00  0.00    +0.090 C 
ATOM     23  N   UNL     1      39.420  75.890  36.589  0.00  0.00    -0.270 NA
ATOM     24  C   UNL     1      40.289  74.762  36.498  0.00  0.00    +0.090 C 
ATOM     25  C   UNL     1      39.912  73.927  35.311  0.00  0.00    +0.090 C 
ENDBRANCH  18  23
ENDBRANCH  17  18
ENDBRANCH  16  17
ENDBRANCH  15  16
ENDBRANCH   1  15
BRANCH  10  26
ATOM     26  N   UNL     1      47.402  81.318  41.936  0.00  0.00    -0.211 NA
BRANCH  26  27
ATOM     27  C   UNL     1      48.406  82.050  42.596  0.00  0.00    +0.084 A 
ATOM     28  C   UNL     1      49.676  81.470  42.642  0.00  0.00    +0.055 A 
ATOM     29  C   UNL     1      50.755  82.033  43.229  0.00  0.00    +0.151 A 
ATOM     30  C   UNL     1      50.624  83.272  43.832  0.00  0.00    +0.092 A 
ATOM     31  C   UNL     1      49.364  83.883  43.803  0.00  0.00    +0.027 A 
ATOM     32  C   UNL     1      48.277  83.256  43.183  0.00  0.00    +0.074 A 
ATOM     33 CL   UNL     1      46.723  84.056  43.174  0.00  0.00    -0.081 Cl
ATOM     34 CL   UNL     1      52.019  84.009  44.587  0.00  0.00    -0.079 Cl
BRANCH  29  35
ATOM     35  O   UNL     1      51.971  81.312  43.200  0.00  0.00    -0.471 OA
ATOM     36  C   UNL     1      52.094  80.174  42.414  0.00  0.00    +0.253 C 
ENDBRANCH  29  35
ENDBRANCH  26  27
ENDBRANCH  10  26
TORSDOF 10
