REMARK  Name = Brigatinib
REMARK  6 active torsions:
REMARK  status: ('A' for Active; 'I' for Inactive)
REMARK    1  A    between atoms: N_5  and  C_8
REMARK    2  A    between atoms: N_11  and  C_14
REMARK    3  A    between atoms: C_16  and  O_39
REMARK    4  A    between atoms: C_17  and  N_20
REMARK    5  A    between atoms: N_27  and  C_28
REMARK    6  A    between atoms: C_33  and  P_34
REMARK                            x       y       z     vdW  Elec       q    Type
REMARK                         _______ _______ _______ _____ _____    ______ ____
ROOT
ATOM      1  C   UNL     1      42.384  76.427  39.169  0.00  0.00    +0.051 A 
ATOM      2  C   UNL     1      41.537  77.180  38.395  0.00  0.00    +0.053 A 
ATOM      3  C   UNL     1      41.840  78.484  38.100  0.00  0.00    +0.155 A 
ATOM      4  C   UNL     1      42.992  79.076  38.564  0.00  0.00    +0.107 A 
ATOM      5  C   UNL     1      43.822  78.312  39.335  0.00  0.00    +0.021 A 
ATOM      6  C   UNL     1      43.542  76.975  39.656  0.00  0.00    +0.016 A 
ENDROOT
BRANCH   4   7
ATOM      7  N   UNL     1      43.283  80.405  38.202  0.00  0.00    -0.175 NA
ATOM      8  C   UNL     1      44.430  81.116  38.677  0.00  0.00    +0.242 A 
ATOM      9  N   UNL     1      44.529  82.451  38.711  0.00  0.00    -0.210 NA
ATOM     10  C   UNL     1      45.596  83.119  39.192  0.00  0.00    +0.116 A 
ATOM     11  C   UNL     1      46.656  82.388  39.683  0.00  0.00    +0.110 A 
ATOM     12  C   UNL     1      46.577  81.002  39.659  0.00  0.00    +0.167 A 
ATOM     13  N   UNL     1      45.477  80.400  39.160  0.00  0.00    -0.194 NA
ATOM     14  N   UNL     1      47.640  80.258  40.221  0.00  0.00    -0.193 NA
ATOM     15 CL   UNL     1      48.098  83.134  40.331  0.00  0.00    -0.078 Cl
BRANCH  14  16
ATOM     16  C   UNL     1      47.468  79.580  41.436  0.00  0.00    +0.075 A 
ATOM     17  C   UNL     1      46.389  78.681  41.563  0.00  0.00    +0.017 A 
ATOM     18  C   UNL     1      46.158  78.008  42.736  0.00  0.00    +0.001 A 
ATOM     19  C   UNL     1      46.986  78.194  43.839  0.00  0.00    +0.000 A 
ATOM     20  C   UNL     1      48.032  79.065  43.720  0.00  0.00    +0.004 A 
ATOM     21  C   UNL     1      48.272  79.761  42.513  0.00  0.00    +0.045 A 
BRANCH  21  22
ATOM     22  P   UNL     1      49.623  80.890  42.515  0.00  0.00    +0.137 P 
ATOM     23  O   UNL     1      49.602  81.792  41.296  0.00  0.00    -0.315 OA
ATOM     24  C   UNL     1      51.174  79.894  42.313  0.00  0.00    +0.072 C 
ATOM     25  C   UNL     1      49.829  81.798  44.050  0.00  0.00    +0.072 C 
ENDBRANCH  21  22
ENDBRANCH  14  16
ENDBRANCH   4   7
BRANCH   1  29
ATOM     26  C   UNL     1      41.365  72.382  40.052  0.00  0.00    +0.061 C 
ATOM     27  C   UNL     1      41.993  73.250  41.112  0.00  0.00    +0.037 C 
ATOM     28  C   UNL     1      42.725  74.419  40.527  0.00  0.00    +0.092 C 
ATOM     29  N   UNL     1      42.035  75.036  39.417  0.00  0.00    -0.307 N 
ATOM     30  C   UNL     1      41.086  74.418  38.564  0.00  0.00    +0.092 C 
ATOM     31  C   UNL     1      40.552  73.118  39.051  0.00  0.00    +0.037 C 
BRANCH  26  36
ATOM     32  C   UNL     1      40.539  68.454  40.462  0.00  0.00    +0.090 C 
ATOM     33  N   UNL     1      39.517  69.087  41.276  0.00  0.00    -0.269 NA
ATOM     34  C   UNL     1      38.671  69.956  40.480  0.00  0.00    +0.090 C 
ATOM     35  C   UNL     1      39.209  71.391  40.569  0.00  0.00    +0.090 C 
ATOM     36  N   UNL     1      40.638  71.284  40.585  0.00  0.00    -0.272 NA
ATOM     37  C   UNL     1      41.011  70.906  41.941  0.00  0.00    +0.090 C 
ATOM     38  C   UNL     1      40.110  69.777  42.410  0.00  0.00    +0.090 C 
ENDBRANCH  26  36
ENDBRANCH   1  29
BRANCH   3  39
ATOM     39  O   UNL     1      40.922  79.183  37.305  0.00  0.00    -0.470 OA
ATOM     40  C   UNL     1      39.798  78.565  36.740  0.00  0.00    +0.253 C 
ENDBRANCH   3  39
TORSDOF 6
