REMARK  Name = Brilinta
REMARK  10 active torsions:
REMARK  status: ('A' for Active; 'I' for Inactive)
REMARK    1  A    between atoms: C_2  and  C_3
REMARK    2  A    between atoms: C_3  and  S_4
REMARK    3  A    between atoms: S_4  and  C_5
REMARK    4  A    between atoms: C_7  and  N_25
REMARK    5  A    between atoms: N_11  and  C_14
REMARK    6  A    between atoms: C_16  and  O_21
REMARK    7  A    between atoms: O_21  and  C_22
REMARK    8  A    between atoms: C_22  and  C_23
REMARK    9  A    between atoms: N_25  and  C_26
REMARK   10  A    between atoms: C_28  and  C_29
REMARK                            x       y       z     vdW  Elec       q    Type
REMARK                         _______ _______ _______ _____ _____    ______ ____
ROOT
ATOM      1  C   UNL     1      45.744  78.990  41.429  0.00  0.00    +0.193 A 
ATOM      2  N   UNL     1      46.619  79.949  41.127  0.00  0.00    -0.203 NA
ATOM      3  C   UNL     1      46.473  80.797  40.094  0.00  0.00    +0.172 A 
ATOM      4  C   UNL     1      45.360  80.661  39.314  0.00  0.00    +0.173 A 
ATOM      5  C   UNL     1      44.434  79.680  39.596  0.00  0.00    +0.185 A 
ATOM      6  N   UNL     1      44.653  78.858  40.662  0.00  0.00    -0.201 NA
ATOM      7  N   UNL     1      43.438  79.747  38.693  0.00  0.00    -0.214 N 
ATOM      8  N   UNL     1      43.743  80.738  37.880  0.00  0.00    -0.062 NA
ATOM      9  N   UNL     1      44.895  81.295  38.243  0.00  0.00    -0.124 NA
ENDROOT
BRANCH   7  10
ATOM     10  C   UNL     1      42.302  78.866  38.694  0.00  0.00    +0.144 C 
ATOM     11  C   UNL     1      42.473  77.676  39.590  0.00  0.00    +0.059 C 
ATOM     12  C   UNL     1      41.392  76.734  39.097  0.00  0.00    +0.150 C 
ATOM     13  C   UNL     1      40.997  77.202  37.712  0.00  0.00    +0.211 C 
ATOM     14  C   UNL     1      42.094  78.203  37.340  0.00  0.00    +0.207 C 
ATOM     15  O   UNL     1      41.656  79.119  36.403  0.00  0.00    -0.218 OA
ATOM     16  O   UNL     1      39.817  77.961  37.748  0.00  0.00    -0.218 OA
BRANCH  12  17
ATOM     17  O   UNL     1      41.747  75.425  39.150  0.00  0.00    -0.351 OA
BRANCH  17  18
ATOM     18  C   UNL     1      42.422  74.963  40.229  0.00  0.00    +0.178 C 
BRANCH  18  19
ATOM     19  C   UNL     1      42.660  73.481  40.111  0.00  0.00    +0.214 C 
ATOM     20  O   UNL     1      41.636  72.743  40.711  0.00  0.00    -0.218 OA
ENDBRANCH  18  19
ENDBRANCH  17  18
ENDBRANCH  12  17
ENDBRANCH   7  10
BRANCH   1  21
ATOM     21  S   UNL     1      46.065  77.936  42.830  0.00  0.00    -0.076 S 
BRANCH  21  22
ATOM     22  C   UNL     1      44.462  77.291  43.410  0.00  0.00    +0.065 C 
BRANCH  22  24
ATOM     23  C   UNL     1      44.830  75.016  44.188  0.00  0.00    +0.001 C 
ATOM     24  C   UNL     1      44.380  75.840  42.975  0.00  0.00    +0.012 C 
ENDBRANCH  22  24
ENDBRANCH  21  22
ENDBRANCH   1  21
BRANCH   3  25
ATOM     25  N   UNL     1      47.434  81.781  39.831  0.00  0.00    -0.220 NA
BRANCH  25  26
ATOM     26  C   UNL     1      48.628  82.005  40.584  0.00  0.00    +0.098 C 
ATOM     27  C   UNL     1      49.919  82.308  39.927  0.00  0.00    +0.028 C 
ATOM     28  C   UNL     1      49.176  83.426  40.557  0.00  0.00    +0.044 C 
BRANCH  28  29
ATOM     29  C   UNL     1      49.578  83.937  41.892  0.00  0.00    -0.018 A 
ATOM     30  C   UNL     1      50.859  83.840  42.394  0.00  0.00    +0.028 A 
ATOM     31  C   UNL     1      51.143  84.345  43.653  0.00  0.00    +0.167 A 
ATOM     32  C   UNL     1      50.170  84.942  44.417  0.00  0.00    +0.167 A 
ATOM     33  C   UNL     1      48.875  85.051  43.933  0.00  0.00    +0.032 A 
ATOM     34  C   UNL     1      48.614  84.539  42.672  0.00  0.00    -0.002 A 
ATOM     35  F   UNL     1      50.404  85.450  45.654  0.00  0.00    -0.202 F 
ATOM     36  F   UNL     1      52.418  84.243  44.139  0.00  0.00    -0.202 F 
ENDBRANCH  28  29
ENDBRANCH  25  26
ENDBRANCH   3  25
TORSDOF 10
