REMARK  Name = Brimonidine
REMARK  1 active torsions:
REMARK  status: ('A' for Active; 'I' for Inactive)
REMARK    1  A    between atoms: N_6  and  C_7
REMARK                            x       y       z     vdW  Elec       q    Type
REMARK                         _______ _______ _______ _____ _____    ______ ____
ROOT
ATOM      1  C   UNL     1      47.888  81.867  41.207  0.00  0.00    +0.081 A 
ATOM      2  C   UNL     1      47.031  80.786  41.109  0.00  0.00    +0.069 A 
ATOM      3  C   UNL     1      46.096  80.632  40.123  0.00  0.00    +0.106 A 
ATOM      4  N   UNL     1      45.271  79.575  40.042  0.00  0.00    -0.240 NA
ATOM      5  C   UNL     1      44.391  79.514  39.042  0.00  0.00    +0.119 A 
ATOM      6  C   UNL     1      44.283  80.488  38.080  0.00  0.00    +0.119 A 
ATOM      7  N   UNL     1      45.111  81.546  38.164  0.00  0.00    -0.241 NA
ATOM      8  C   UNL     1      46.018  81.647  39.160  0.00  0.00    +0.100 A 
ATOM      9  C   UNL     1      46.844  82.741  39.211  0.00  0.00    +0.022 A 
ATOM     10  C   UNL     1      47.761  82.828  40.234  0.00  0.00    +0.019 A 
ATOM     11 BR   UNL     1      47.180  79.435  42.444  0.00  0.00    -0.046 Br
ENDROOT
BRANCH   1  17
ATOM     12  C   UNL     1      52.245  83.221  42.626  0.00  0.00    +0.141 C 
ATOM     13  C   UNL     1      52.075  83.057  41.136  0.00  0.00    +0.152 C 
ATOM     14  N   UNL     1      50.673  82.763  40.996  0.00  0.00    -0.239 NA
ATOM     15  C   UNL     1      50.187  82.343  42.108  0.00  0.00    +0.221 C 
ATOM     16  N   UNL     1      51.223  82.314  43.112  0.00  0.00    -0.204 NA
ATOM     17  N   UNL     1      48.831  81.975  42.253  0.00  0.00    -0.180 NA
ENDBRANCH   1  17
TORSDOF 1
