REMARK  Name = Brinzolamide
REMARK  7 active torsions:
REMARK  status: ('A' for Active; 'I' for Inactive)
REMARK    1  A    between atoms: C_2  and  N_3
REMARK    2  A    between atoms: N_3  and  C_4
REMARK    3  A    between atoms: N_6  and  C_19
REMARK    4  A    between atoms: C_13  and  S_15
REMARK    5  A    between atoms: C_19  and  C_20
REMARK    6  A    between atoms: C_20  and  C_21
REMARK    7  A    between atoms: C_21  and  O_22
REMARK                            x       y       z     vdW  Elec       q    Type
REMARK                         _______ _______ _______ _____ _____    ______ ____
ROOT
ATOM      1  C   UNL     1      45.947  79.010  41.050  0.00  0.00    +0.114 C 
ATOM      2  C   UNL     1      44.573  79.516  40.867  0.00  0.00    +0.118 C 
ATOM      3  N   UNL     1      44.248  79.849  39.491  0.00  0.00    -0.153 NA
ATOM      4  S   UNL     1      45.184  81.206  39.073  0.00  0.00    +0.069 S 
ATOM      5  O   UNL     1      44.462  82.497  39.372  0.00  0.00    -0.152 OA
ATOM      6  O   UNL     1      45.672  81.237  37.676  0.00  0.00    -0.152 OA
ATOM      7  C   UNL     1      46.605  81.195  40.118  0.00  0.00    +0.150 A 
ATOM      8  C   UNL     1      46.916  80.193  40.994  0.00  0.00    +0.022 A 
ATOM      9  C   UNL     1      48.057  80.361  41.718  0.00  0.00    +0.026 A 
ATOM     10  C   UNL     1      48.770  81.497  41.505  0.00  0.00    +0.155 A 
ATOM     11  S   UNL     1      47.875  82.317  40.321  0.00  0.00    -0.048 S 
ENDROOT
BRANCH  10  12
ATOM     12  S   UNL     1      50.277  82.027  42.263  0.00  0.00    +0.099 S 
ATOM     13  O   UNL     1      49.947  82.880  43.468  0.00  0.00    -0.150 OA
ATOM     14  O   UNL     1      51.077  82.872  41.323  0.00  0.00    -0.150 OA
ATOM     15  N   UNL     1      51.206  80.701  42.788  0.00  0.00    +0.040 NA
ENDBRANCH  10  12
BRANCH   1  16
ATOM     16  N   UNL     1      46.068  78.366  42.329  0.00  0.00    -0.214 NA
BRANCH  16  18
ATOM     17  C   UNL     1      45.225  77.136  44.178  0.00  0.00    +0.020 C 
ATOM     18  C   UNL     1      45.068  77.435  42.676  0.00  0.00    +0.089 C 
ENDBRANCH  16  18
ENDBRANCH   1  16
BRANCH   3  19
ATOM     19  C   UNL     1      44.303  78.746  38.609  0.00  0.00    +0.098 C 
BRANCH  19  20
ATOM     20  C   UNL     1      43.178  78.711  37.641  0.00  0.00    +0.051 C 
BRANCH  20  21
ATOM     21  C   UNL     1      42.252  77.556  37.702  0.00  0.00    +0.144 C 
BRANCH  21  22
ATOM     22  O   UNL     1      40.972  77.906  37.296  0.00  0.00    -0.351 OA
ATOM     23  C   UNL     1      40.090  76.841  37.317  0.00  0.00    +0.174 C 
ENDBRANCH  21  22
ENDBRANCH  20  21
ENDBRANCH  19  20
ENDBRANCH   3  19
TORSDOF 7
