REMARK  Name = Brivaracetam
REMARK  5 active torsions:
REMARK  status: ('A' for Active; 'I' for Inactive)
REMARK    1  A    between atoms: C_2  and  C_3
REMARK    2  A    between atoms: C_3  and  C_4
REMARK    3  A    between atoms: N_8  and  C_10
REMARK    4  A    between atoms: C_10  and  C_11
REMARK    5  A    between atoms: C_10  and  C_13
REMARK                            x       y       z     vdW  Elec       q    Type
REMARK                         _______ _______ _______ _____ _____    ______ ____
ROOT
ATOM      1  C   UNL     1      48.247  81.952  42.079  0.00  0.00    +0.029 C 
ATOM      2  C   UNL     1      48.831  82.385  40.781  0.00  0.00    +0.087 C 
ATOM      3  C   UNL     1      48.190  81.389  39.835  0.00  0.00    +0.226 C 
ATOM      4  O   UNL     1      48.721  81.049  38.758  0.00  0.00    -0.275 OA
ATOM      5  N   UNL     1      46.971  80.999  40.434  0.00  0.00    -0.273 N 
ATOM      6  C   UNL     1      46.792  81.686  41.699  0.00  0.00    +0.094 C 
ENDROOT
BRANCH   1   7
ATOM      7  C   UNL     1      48.388  82.893  43.189  0.00  0.00    +0.002 C 
BRANCH   7   9
ATOM      8  C   UNL     1      47.694  85.346  43.307  0.00  0.00    +0.000 C 
ATOM      9  C   UNL     1      48.632  84.304  42.786  0.00  0.00    +0.000 C 
ENDBRANCH   7   9
ENDBRANCH   1   7
BRANCH   5  10
ATOM     10  C   UNL     1      46.062  80.032  39.813  0.00  0.00    +0.155 C 
BRANCH  10  11
ATOM     11  C   UNL     1      45.336  80.699  38.709  0.00  0.00    +0.279 C 
ATOM     12  O   UNL     1      45.172  81.939  38.687  0.00  0.00    -0.270 OA
ATOM     13  N   UNL     1      44.807  79.931  37.644  0.00  0.00    -0.086 NA
ENDBRANCH  10  11
BRANCH  10  14
ATOM     14  C   UNL     1      45.007  79.589  40.813  0.00  0.00    +0.029 C 
ATOM     15  C   UNL     1      45.558  78.408  41.563  0.00  0.00    +0.002 C 
ENDBRANCH  10  14
ENDBRANCH   5  10
TORSDOF 5
