REMARK  Name = Brodimoprim
REMARK  4 active torsions:
REMARK  status: ('A' for Active; 'I' for Inactive)
REMARK    1  A    between atoms: O_2  and  C_3
REMARK    2  A    between atoms: C_5  and  C_12
REMARK    3  A    between atoms: C_7  and  O_10
REMARK    4  A    between atoms: C_12  and  C_13
REMARK                            x       y       z     vdW  Elec       q    Type
REMARK                         _______ _______ _______ _____ _____    ______ ____
ROOT
ATOM      1  C   UNL     1      48.481  84.050  43.148  0.00  0.00    +0.147 A 
ATOM      2  C   UNL     1      47.854  82.860  42.775  0.00  0.00    +0.034 A 
ATOM      3  C   UNL     1      48.554  81.842  42.180  0.00  0.00    -0.012 A 
ATOM      4  C   UNL     1      49.897  82.008  41.952  0.00  0.00    +0.034 A 
ATOM      5  C   UNL     1      50.565  83.182  42.309  0.00  0.00    +0.147 A 
ATOM      6  C   UNL     1      49.843  84.195  42.906  0.00  0.00    +0.102 A 
ATOM      7 BR   UNL     1      50.709  85.834  43.420  0.00  0.00    -0.043 Br
ENDROOT
BRANCH   1   9
ATOM      8  C   UNL     1      46.401  85.242  43.563  0.00  0.00    +0.252 C 
ATOM      9  O   UNL     1      47.774  85.077  43.748  0.00  0.00    -0.471 OA
ENDBRANCH   1   9
BRANCH   5  10
ATOM     10  O   UNL     1      51.896  83.346  42.082  0.00  0.00    -0.471 OA
ATOM     11  C   UNL     1      52.671  82.756  41.095  0.00  0.00    +0.252 C 
ENDBRANCH   5  10
BRANCH   3  12
ATOM     12  C   UNL     1      47.884  80.613  41.800  0.00  0.00    +0.057 C 
BRANCH  12  13
ATOM     13  C   UNL     1      46.901  80.781  40.702  0.00  0.00    +0.036 A 
ATOM     14  C   UNL     1      46.806  81.885  39.921  0.00  0.00    +0.101 A 
ATOM     15  N   UNL     1      45.896  81.990  38.937  0.00  0.00    -0.210 NA
ATOM     16  C   UNL     1      45.031  80.974  38.693  0.00  0.00    +0.258 A 
ATOM     17  N   UNL     1      45.125  79.885  39.463  0.00  0.00    -0.193 NA
ATOM     18  C   UNL     1      46.022  79.734  40.463  0.00  0.00    +0.170 A 
ATOM     19  N   UNL     1      46.084  78.560  41.254  0.00  0.00    -0.107 NA
ATOM     20  N   UNL     1      44.072  81.100  37.646  0.00  0.00    -0.086 NA
ENDBRANCH  12  13
ENDBRANCH   3  12
TORSDOF 4
