REMARK  Name = Bromopride
REMARK  7 active torsions:
REMARK  status: ('A' for Active; 'I' for Inactive)
REMARK    1  A    between atoms: C_2  and  N_3
REMARK    2  A    between atoms: N_3  and  C_4
REMARK    3  A    between atoms: N_3  and  C_6
REMARK    4  A    between atoms: C_6  and  C_7
REMARK    5  A    between atoms: C_7  and  N_8
REMARK    6  A    between atoms: C_9  and  C_11
REMARK    7  A    between atoms: C_16  and  O_17
REMARK                            x       y       z     vdW  Elec       q    Type
REMARK                         _______ _______ _______ _____ _____    ______ ____
ROOT
ATOM      1  N   UNL     1      46.095  80.801  40.672  0.00  0.00    -0.200 NA
ATOM      2  C   UNL     1      46.779  82.014  40.489  0.00  0.00    +0.268 C 
ATOM      3  O   UNL     1      46.309  82.737  39.533  0.00  0.00    -0.268 OA
ENDROOT
BRANCH   2   4
ATOM      4  C   UNL     1      47.909  82.473  41.259  0.00  0.00    +0.089 A 
ATOM      5  C   UNL     1      49.119  81.807  41.062  0.00  0.00    +0.016 A 
ATOM      6  C   UNL     1      50.246  82.208  41.753  0.00  0.00    +0.052 A 
ATOM      7  C   UNL     1      50.194  83.261  42.637  0.00  0.00    +0.098 A 
ATOM      8  C   UNL     1      48.989  83.889  42.805  0.00  0.00    +0.056 A 
ATOM      9  C   UNL     1      47.850  83.501  42.122  0.00  0.00    +0.144 A 
ATOM     10  N   UNL     1      51.357  83.667  43.331  0.00  0.00    -0.127 NA
ATOM     11 BR   UNL     1      51.911  81.331  41.513  0.00  0.00    -0.048 Br
BRANCH   9  12
ATOM     12  O   UNL     1      46.709  84.200  42.370  0.00  0.00    -0.471 OA
ATOM     13  C   UNL     1      46.667  85.222  43.324  0.00  0.00    +0.252 C 
ENDBRANCH   9  12
ENDBRANCH   2   4
BRANCH   1  14
ATOM     14  C   UNL     1      44.879  80.417  39.926  0.00  0.00    +0.133 C 
BRANCH  14  15
ATOM     15  C   UNL     1      44.421  79.032  40.284  0.00  0.00    +0.096 C 
BRANCH  15  16
ATOM     16  N   UNL     1      43.229  78.537  39.777  0.00  0.00    -0.271 NA
BRANCH  16  18
ATOM     17  C   UNL     1      44.043  76.551  40.954  0.00  0.00    +0.019 C 
ATOM     18  C   UNL     1      43.294  77.079  39.750  0.00  0.00    +0.072 C 
ENDBRANCH  16  18
BRANCH  16  19
ATOM     19  C   UNL     1      42.409  79.098  38.821  0.00  0.00    +0.072 C 
ATOM     20  C   UNL     1      42.805  79.022  37.368  0.00  0.00    +0.019 C 
ENDBRANCH  16  19
ENDBRANCH  15  16
ENDBRANCH  14  15
ENDBRANCH   1  14
TORSDOF 7
