REMARK  Name = Bromocriptine
REMARK  5 active torsions:
REMARK  status: ('A' for Active; 'I' for Inactive)
REMARK    1  A    between atoms: C_2  and  C_4
REMARK    2  A    between atoms: C_4  and  C_5
REMARK    3  A    between atoms: C_17  and  C_19
REMARK    4  A    between atoms: C_17  and  N_22
REMARK    5  A    between atoms: C_23  and  C_25
REMARK                            x       y       z     vdW  Elec       q    Type
REMARK                         _______ _______ _______ _____ _____    ______ ____
ROOT
ATOM      1  C   UNL     1      51.576  83.201  42.304  0.00  0.00    +0.156 C 
ATOM      2  C   UNL     1      52.159  82.770  43.587  0.00  0.00    +0.244 C 
ATOM      3  O   UNL     1      53.123  83.413  44.077  0.00  0.00    -0.273 OA
ATOM      4  N   UNL     1      51.592  81.633  44.213  0.00  0.00    -0.273 N 
ATOM      5  C   UNL     1      52.019  80.794  45.304  0.00  0.00    +0.094 C 
ATOM      6  C   UNL     1      50.707  80.705  46.097  0.00  0.00    +0.023 C 
ATOM      7  C   UNL     1      49.711  80.438  44.992  0.00  0.00    +0.029 C 
ATOM      8  C   UNL     1      50.295  81.092  43.762  0.00  0.00    +0.149 C 
ATOM      9  C   UNL     1      49.468  82.314  43.439  0.00  0.00    +0.307 C 
ATOM     10  N   UNL     1      50.114  83.151  42.451  0.00  0.00    -0.225 N 
ATOM     11  C   UNL     1      49.059  83.809  41.788  0.00  0.00    +0.274 C 
ATOM     12  O   UNL     1      49.006  84.890  41.193  0.00  0.00    -0.270 OA
ATOM     13  C   UNL     1      47.870  82.858  41.946  0.00  0.00    +0.243 C 
ATOM     14  O   UNL     1      48.210  82.058  42.996  0.00  0.00    -0.294 OA
ATOM     15  O   UNL     1      49.478  83.085  44.627  0.00  0.00    -0.172 OA
ENDROOT
BRANCH  13  16
ATOM     16  C   UNL     1      46.716  83.768  42.255  0.00  0.00    +0.053 C 
ATOM     17  C   UNL     1      45.510  83.015  42.703  0.00  0.00    +0.005 C 
ATOM     18  C   UNL     1      47.074  84.749  43.373  0.00  0.00    +0.005 C 
ENDBRANCH  13  16
BRANCH  13  19
ATOM     19  N   UNL     1      47.819  82.206  40.661  0.00  0.00    -0.173 NA
ATOM     20  C   UNL     1      46.706  81.612  40.037  0.00  0.00    +0.249 C 
ATOM     21  O   UNL     1      45.597  82.162  40.128  0.00  0.00    -0.273 OA
BRANCH  20  22
ATOM     22  C   UNL     1      46.904  80.338  39.288  0.00  0.00    +0.116 C 
ATOM     23  C   UNL     1      46.061  80.438  38.021  0.00  0.00    +0.086 C 
ATOM     24  N   UNL     1      44.691  80.682  38.314  0.00  0.00    -0.268 NA
ATOM     25  C   UNL     1      44.066  79.836  39.273  0.00  0.00    +0.084 C 
ATOM     26  C   UNL     1      42.844  79.147  38.751  0.00  0.00    +0.049 C 
ATOM     27  C   UNL     1      42.349  78.017  39.541  0.00  0.00    +0.005 A 
ATOM     28  C   UNL     1      41.136  77.303  39.590  0.00  0.00    +0.111 A 
ATOM     29  N   UNL     1      41.229  76.326  40.518  0.00  0.00    -0.239 NA
ATOM     30  C   UNL     1      42.469  76.398  41.063  0.00  0.00    +0.082 A 
ATOM     31  C   UNL     1      43.191  75.722  42.035  0.00  0.00    +0.019 A 
ATOM     32  C   UNL     1      44.511  76.098  42.352  0.00  0.00    +0.002 A 
ATOM     33  C   UNL     1      45.158  77.145  41.727  0.00  0.00    -0.000 A 
ATOM     34  C   UNL     1      44.419  77.798  40.767  0.00  0.00    -0.002 A 
ATOM     35  C   UNL     1      43.146  77.430  40.464  0.00  0.00    +0.015 A 
ATOM     36  C   UNL     1      44.996  78.947  40.026  0.00  0.00    -0.011 C 
ATOM     37  C   UNL     1      46.282  79.183  40.027  0.00  0.00    -0.019 C 
ATOM     38 BR   UNL     1      39.650  77.721  38.481  0.00  0.00    -0.028 Br
ATOM     39  C   UNL     1      43.965  80.780  37.064  0.00  0.00    +0.090 C 
ENDBRANCH  20  22
ENDBRANCH  13  19
BRANCH   1  40
ATOM     40  C   UNL     1      51.991  82.409  41.120  0.00  0.00    +0.029 C 
BRANCH  40  42
ATOM     41  C   UNL     1      52.640  84.629  40.102  0.00  0.00    +0.000 C 
ATOM     42  C   UNL     1      52.437  83.166  39.924  0.00  0.00    +0.002 C 
ATOM     43  C   UNL     1      53.789  82.556  39.520  0.00  0.00    +0.000 C 
ENDBRANCH  40  42
ENDBRANCH   1  40
TORSDOF 5
