REMARK  Name = Bromfenac
REMARK  4 active torsions:
REMARK  status: ('A' for Active; 'I' for Inactive)
REMARK    1  A    between atoms: C_3  and  C_17
REMARK    2  A    between atoms: C_5  and  C_7
REMARK    3  A    between atoms: C_7  and  C_9
REMARK    4  A    between atoms: C_17  and  C_18
REMARK                            x       y       z     vdW  Elec       q    Type
REMARK                         _______ _______ _______ _____ _____    ______ ____
ROOT
ATOM      1  C   UNL     1      45.147  78.486  41.644  0.00  0.00    -0.000 A 
ATOM      2  C   UNL     1      44.331  77.980  40.676  0.00  0.00    -0.002 A 
ATOM      3  C   UNL     1      44.150  78.611  39.468  0.00  0.00    +0.006 A 
ATOM      4  C   UNL     1      44.812  79.786  39.233  0.00  0.00    +0.089 A 
ATOM      5  C   UNL     1      45.669  80.358  40.195  0.00  0.00    +0.055 A 
ATOM      6  C   UNL     1      45.809  79.683  41.381  0.00  0.00    +0.005 A 
ATOM      7  N   UNL     1      44.640  80.461  37.991  0.00  0.00    -0.128 NA
ENDROOT
BRANCH   5   8
ATOM      8  C   UNL     1      46.316  81.618  39.938  0.00  0.00    +0.197 C 
ATOM      9  O   UNL     1      46.100  82.176  38.802  0.00  0.00    -0.287 OA
BRANCH   8  10
ATOM     10  C   UNL     1      47.199  82.347  40.821  0.00  0.00    +0.039 A 
ATOM     11  C   UNL     1      46.797  83.225  41.793  0.00  0.00    +0.004 A 
ATOM     12  C   UNL     1      47.714  83.918  42.576  0.00  0.00    +0.007 A 
ATOM     13  C   UNL     1      49.060  83.741  42.396  0.00  0.00    +0.035 A 
ATOM     14  C   UNL     1      49.514  82.861  41.425  0.00  0.00    +0.007 A 
ATOM     15  C   UNL     1      48.584  82.193  40.669  0.00  0.00    +0.004 A 
ATOM     16 BR   UNL     1      50.331  84.694  43.471  0.00  0.00    -0.049 Br
ENDBRANCH   8  10
ENDBRANCH   5   8
BRANCH   3  17
ATOM     17  C   UNL     1      43.261  78.001  38.459  0.00  0.00    +0.142 C 
BRANCH  17  18
ATOM     18  C   UNL     1      41.825  78.232  38.782  0.00  0.00    +0.369 C 
ATOM     19  O   UNL     1      41.328  79.380  38.595  0.00  0.00    -0.245 OA
ATOM     20  O   UNL     1      41.058  77.192  39.279  0.00  0.00    -0.245 OA
ENDBRANCH  17  18
ENDBRANCH   3  17
TORSDOF 4
