REMARK  Name = Bromodiphenhydramine
REMARK  6 active torsions:
REMARK  status: ('A' for Active; 'I' for Inactive)
REMARK    1  A    between atoms: N_2  and  C_4
REMARK    2  A    between atoms: C_4  and  C_5
REMARK    3  A    between atoms: C_5  and  O_6
REMARK    4  A    between atoms: O_6  and  C_7
REMARK    5  A    between atoms: C_7  and  C_8
REMARK    6  A    between atoms: C_7  and  C_14
REMARK                            x       y       z     vdW  Elec       q    Type
REMARK                         _______ _______ _______ _____ _____    ______ ____
ROOT
ATOM      1  C   UNL     1      44.553  78.413  39.756  0.00  0.00    +0.160 C 
ENDROOT
BRANCH   1   2
ATOM      2  C   UNL     1      45.363  79.651  39.875  0.00  0.00    +0.009 A 
ATOM      3  C   UNL     1      46.253  79.730  40.920  0.00  0.00    -0.001 A 
ATOM      4  C   UNL     1      47.014  80.875  41.055  0.00  0.00    +0.006 A 
ATOM      5  C   UNL     1      46.871  81.904  40.149  0.00  0.00    +0.035 A 
ATOM      6  C   UNL     1      45.962  81.807  39.094  0.00  0.00    +0.006 A 
ATOM      7  C   UNL     1      45.200  80.677  38.949  0.00  0.00    -0.001 A 
ATOM      8 BR   UNL     1      47.945  83.462  40.373  0.00  0.00    -0.049 Br
ENDBRANCH   1   2
BRANCH   1   9
ATOM      9  C   UNL     1      44.592  77.577  40.976  0.00  0.00    +0.009 A 
ATOM     10  C   UNL     1      45.390  76.439  41.059  0.00  0.00    -0.002 A 
ATOM     11  C   UNL     1      45.448  75.642  42.172  0.00  0.00    -0.000 A 
ATOM     12  C   UNL     1      44.683  75.970  43.273  0.00  0.00    -0.000 A 
ATOM     13  C   UNL     1      43.881  77.080  43.242  0.00  0.00    -0.000 A 
ATOM     14  C   UNL     1      43.843  77.866  42.105  0.00  0.00    -0.002 A 
ENDBRANCH   1   9
BRANCH   1  15
ATOM     15  O   UNL     1      43.238  78.651  39.402  0.00  0.00    -0.346 OA
BRANCH  15  16
ATOM     16  C   UNL     1      42.649  77.579  38.763  0.00  0.00    +0.160 C 
BRANCH  16  17
ATOM     17  C   UNL     1      41.318  78.022  38.228  0.00  0.00    +0.105 C 
BRANCH  17  19
ATOM     18  C   UNL     1      39.312  77.349  37.085  0.00  0.00    +0.090 C 
ATOM     19  N   UNL     1      40.624  76.965  37.532  0.00  0.00    -0.268 NA
ATOM     20  C   UNL     1      40.605  75.784  38.370  0.00  0.00    +0.090 C 
ENDBRANCH  17  19
ENDBRANCH  16  17
ENDBRANCH  15  16
ENDBRANCH   1  15
TORSDOF 6
