REMARK  Name = Bromperidol
REMARK  6 active torsions:
REMARK  status: ('A' for Active; 'I' for Inactive)
REMARK    1  A    between atoms: N_3  and  C_15
REMARK    2  A    between atoms: C_6  and  C_7
REMARK    3  A    between atoms: C_15  and  C_16
REMARK    4  A    between atoms: C_16  and  C_17
REMARK    5  A    between atoms: C_17  and  C_18
REMARK    6  A    between atoms: C_18  and  C_20
REMARK                            x       y       z     vdW  Elec       q    Type
REMARK                         _______ _______ _______ _____ _____    ______ ____
ROOT
ATOM      1  C   UNL     1      47.705  81.073  42.441  0.00  0.00    +0.052 C 
ATOM      2  C   UNL     1      47.152  79.915  41.629  0.00  0.00    +0.075 C 
ATOM      3  N   UNL     1      46.303  80.440  40.644  0.00  0.00    -0.272 NA
ATOM      4  C   UNL     1      46.120  81.834  40.607  0.00  0.00    +0.075 C 
ATOM      5  C   UNL     1      47.474  82.552  40.506  0.00  0.00    +0.052 C 
ATOM      6  C   UNL     1      48.432  82.040  41.516  0.00  0.00    +0.148 C 
ATOM      7  O   UNL     1      49.464  81.268  40.913  0.00  0.00    -0.221 OA
ENDROOT
BRANCH   6   8
ATOM      8  C   UNL     1      49.124  83.037  42.339  0.00  0.00    +0.005 A 
ATOM      9  C   UNL     1      50.516  82.949  42.352  0.00  0.00    -0.001 A 
ATOM     10  C   UNL     1      51.232  83.841  43.105  0.00  0.00    +0.006 A 
ATOM     11  C   UNL     1      50.647  84.830  43.855  0.00  0.00    +0.035 A 
ATOM     12  C   UNL     1      49.273  84.923  43.846  0.00  0.00    +0.006 A 
ATOM     13  C   UNL     1      48.526  84.017  43.081  0.00  0.00    -0.001 A 
ATOM     14 BR   UNL     1      51.662  86.067  44.901  0.00  0.00    -0.049 Br
ENDBRANCH   6   8
BRANCH   3  15
ATOM     15  C   UNL     1      45.895  79.650  39.555  0.00  0.00    +0.073 C 
BRANCH  15  16
ATOM     16  C   UNL     1      45.121  78.451  40.021  0.00  0.00    +0.025 C 
BRANCH  16  17
ATOM     17  C   UNL     1      43.660  78.598  40.041  0.00  0.00    +0.071 C 
BRANCH  17  18
ATOM     18  C   UNL     1      42.967  78.779  38.784  0.00  0.00    +0.173 C 
ATOM     19  O   UNL     1      43.260  79.696  37.997  0.00  0.00    -0.291 OA
BRANCH  18  20
ATOM     20  C   UNL     1      41.898  77.876  38.414  0.00  0.00    +0.035 A 
ATOM     21  C   UNL     1      41.780  76.602  38.975  0.00  0.00    +0.005 A 
ATOM     22  C   UNL     1      40.760  75.753  38.618  0.00  0.00    +0.030 A 
ATOM     23  C   UNL     1      39.808  76.122  37.691  0.00  0.00    +0.140 A 
ATOM     24  C   UNL     1      39.909  77.361  37.134  0.00  0.00    +0.030 A 
ATOM     25  C   UNL     1      40.933  78.215  37.492  0.00  0.00    +0.005 A 
ATOM     26  F   UNL     1      38.794  75.277  37.338  0.00  0.00    -0.204 F 
ENDBRANCH  18  20
ENDBRANCH  17  18
ENDBRANCH  16  17
ENDBRANCH  15  16
ENDBRANCH   3  15
TORSDOF 6
