REMARK  Name = Bromazepam
REMARK  1 active torsions:
REMARK  status: ('A' for Active; 'I' for Inactive)
REMARK    1  A    between atoms: C_12  and  C_14
REMARK                            x       y       z     vdW  Elec       q    Type
REMARK                         _______ _______ _______ _____ _____    ______ ____
ROOT
ATOM      1  C   UNL     1      45.342  80.433  38.087  0.00  0.00    +0.212 C 
ATOM      2  C   UNL     1      45.347  81.896  38.320  0.00  0.00    +0.270 C 
ATOM      3  O   UNL     1      44.605  82.547  37.559  0.00  0.00    -0.271 OA
ATOM      4  N   UNL     1      46.101  82.628  39.308  0.00  0.00    -0.177 NA
ATOM      5  C   UNL     1      46.962  82.047  40.278  0.00  0.00    +0.075 A 
ATOM      6  C   UNL     1      46.866  80.726  40.743  0.00  0.00    +0.035 A 
ATOM      7  C   UNL     1      47.808  80.269  41.639  0.00  0.00    +0.010 A 
ATOM      8  C   UNL     1      48.847  81.067  42.104  0.00  0.00    +0.035 A 
ATOM      9  C   UNL     1      48.910  82.358  41.631  0.00  0.00    +0.008 A 
ATOM     10  C   UNL     1      47.982  82.847  40.728  0.00  0.00    +0.017 A 
ATOM     11 BR   UNL     1      50.127  80.366  43.360  0.00  0.00    -0.049 Br
ATOM     12  C   UNL     1      45.866  79.726  40.430  0.00  0.00    +0.095 C 
ATOM     13  N   UNL     1      45.269  79.662  39.294  0.00  0.00    -0.259 NA
ENDROOT
BRANCH  12  14
ATOM     14  C   UNL     1      45.534  78.783  41.479  0.00  0.00    +0.099 A 
ATOM     15  C   UNL     1      44.769  77.703  41.053  0.00  0.00    +0.021 A 
ATOM     16  C   UNL     1      44.338  76.772  41.944  0.00  0.00    +0.003 A 
ATOM     17  C   UNL     1      44.652  76.888  43.276  0.00  0.00    +0.021 A 
ATOM     18  C   UNL     1      45.409  77.973  43.646  0.00  0.00    +0.099 A 
ATOM     19  N   UNL     1      45.825  78.875  42.762  0.00  0.00    -0.242 NA
ENDBRANCH  12  14
TORSDOF 1
