REMARK  Name = Brovincamine_fumarate
REMARK  5 active torsions:
REMARK  status: ('A' for Active; 'I' for Inactive)
REMARK    1  A    between atoms: C_2  and  C_3
REMARK    2  A    between atoms: C_16  and  C_18
REMARK    3  A    between atoms: C_18  and  O_20
REMARK    4  A    between atoms: C_28  and  C_33
REMARK    5  A    between atoms: C_29  and  C_30
REMARK                            x       y       z     vdW  Elec       q    Type
REMARK                         _______ _______ _______ _____ _____    ______ ____
ROOT
ATOM      1  C   UNL     1      46.109  78.832  40.485  0.00  0.00    +0.024 C 
ATOM      2  C   UNL     1      45.698  78.752  39.028  0.00  0.00    +0.003 C 
ATOM      3  C   UNL     1      44.210  78.736  38.892  0.00  0.00    +0.017 C 
ATOM      4  C   UNL     1      43.569  79.872  39.644  0.00  0.00    +0.072 C 
ATOM      5  N   UNL     1      44.466  80.682  40.365  0.00  0.00    -0.269 NA
ATOM      6  C   UNL     1      45.540  80.096  41.047  0.00  0.00    +0.096 C 
ATOM      7  C   UNL     1      46.602  81.100  41.317  0.00  0.00    +0.050 A 
ATOM      8  C   UNL     1      46.442  82.441  41.290  0.00  0.00    -0.006 A 
ATOM      9  C   UNL     1      45.102  82.985  40.940  0.00  0.00    +0.045 C 
ATOM     10  C   UNL     1      44.567  82.001  39.887  0.00  0.00    +0.077 C 
ATOM     11  C   UNL     1      47.664  82.985  41.621  0.00  0.00    +0.013 A 
ATOM     12  C   UNL     1      48.582  81.960  41.852  0.00  0.00    +0.062 A 
ATOM     13  N   UNL     1      47.869  80.827  41.648  0.00  0.00    -0.301 N 
ATOM     14  C   UNL     1      48.217  79.418  41.715  0.00  0.00    +0.285 C 
ATOM     15  C   UNL     1      47.588  78.745  40.541  0.00  0.00    +0.066 C 
ATOM     16  O   UNL     1      47.558  78.966  42.888  0.00  0.00    -0.190 OA
ATOM     17  C   UNL     1      49.886  82.239  42.210  0.00  0.00    +0.024 A 
ATOM     18  C   UNL     1      50.263  83.557  42.333  0.00  0.00    +0.036 A 
ATOM     19  C   UNL     1      49.370  84.582  42.108  0.00  0.00    +0.007 A 
ATOM     20  C   UNL     1      48.081  84.294  41.755  0.00  0.00    +0.002 A 
ATOM     21 BR   UNL     1      52.072  83.950  42.829  0.00  0.00    -0.049 Br
ENDROOT
BRANCH   1  23
ATOM     22  C   UNL     1      45.413  77.761  42.652  0.00  0.00    +0.000 C 
ATOM     23  C   UNL     1      45.526  77.618  41.180  0.00  0.00    +0.002 C 
ENDBRANCH   1  23
BRANCH  14  24
ATOM     24  C   UNL     1      49.643  79.141  41.844  0.00  0.00    +0.366 C 
ATOM     25  O   UNL     1      50.088  78.785  42.956  0.00  0.00    -0.245 OA
BRANCH  24  26
ATOM     26  O   UNL     1      50.529  79.252  40.801  0.00  0.00    -0.441 OA
ATOM     27  C   UNL     1      51.351  78.153  40.377  0.00  0.00    +0.256 C 
ENDBRANCH  24  26
ENDBRANCH  14  24
TORSDOF 3
REMARK  Name = Brovincamine_fumarate
REMARK  5 active torsions:
REMARK  status: ('A' for Active; 'I' for Inactive)
REMARK    1  A    between atoms: C_2  and  C_3
REMARK    2  A    between atoms: C_16  and  C_18
REMARK    3  A    between atoms: C_18  and  O_20
REMARK    4  A    between atoms: C_28  and  C_33
REMARK    5  A    between atoms: C_29  and  C_30
REMARK                            x       y       z     vdW  Elec       q    Type
REMARK                         _______ _______ _______ _____ _____    ______ ____
ROOT
ATOM      1  C   UNL     1      46.544  80.311  40.062  0.00  0.00    +0.093 C 
ATOM      2  C   UNL     1      46.978  81.283  40.803  0.00  0.00    +0.093 C 
ENDROOT
BRANCH   2   3
ATOM      3  C   UNL     1      47.454  81.112  42.161  0.00  0.00    +0.388 C 
ATOM      4  O   UNL     1      48.629  81.274  42.553  0.00  0.00    -0.241 OA
ATOM      5  O   UNL     1      46.527  80.724  43.172  0.00  0.00    -0.241 OA
ENDBRANCH   2   3
BRANCH   1   6
ATOM      6  C   UNL     1      46.226  80.215  38.685  0.00  0.00    +0.388 C 
ATOM      7  O   UNL     1      45.782  81.273  38.095  0.00  0.00    -0.241 OA
ATOM      8  O   UNL     1      46.325  79.114  37.851  0.00  0.00    -0.241 OA
ENDBRANCH   1   6
TORSDOF 2
