REMARK  Name = Buclizine
REMARK  6 active torsions:
REMARK  status: ('A' for Active; 'I' for Inactive)
REMARK    1  A    between atoms: C_2  and  C_5
REMARK    2  A    between atoms: C_8  and  C_11
REMARK    3  A    between atoms: C_11  and  N_12
REMARK    4  A    between atoms: N_15  and  C_18
REMARK    5  A    between atoms: C_18  and  C_19
REMARK    6  A    between atoms: C_18  and  C_25
REMARK                            x       y       z     vdW  Elec       q    Type
REMARK                         _______ _______ _______ _____ _____    ______ ____
ROOT
ATOM      1  N   UNL     1      46.667  81.095  39.317  0.00  0.00    -0.267 NA
ATOM      2  C   UNL     1      45.972  80.803  38.099  0.00  0.00    +0.090 C 
ATOM      3  C   UNL     1      44.548  80.397  38.254  0.00  0.00    +0.090 C 
ATOM      4  N   UNL     1      44.222  79.628  39.408  0.00  0.00    -0.264 NA
ATOM      5  C   UNL     1      45.091  79.768  40.523  0.00  0.00    +0.090 C 
ATOM      6  C   UNL     1      46.551  79.941  40.181  0.00  0.00    +0.090 C 
ENDROOT
BRANCH   1   7
ATOM      7  C   UNL     1      46.311  82.314  39.963  0.00  0.00    +0.099 C 
BRANCH   7  11
ATOM      8  C   UNL     1      49.452  83.538  42.504  0.00  0.00    -0.023 A 
ATOM      9  C   UNL     1      48.170  83.864  42.867  0.00  0.00    -0.005 A 
ATOM     10  C   UNL     1      47.125  83.460  42.030  0.00  0.00    -0.003 A 
ATOM     11  C   UNL     1      47.388  82.757  40.878  0.00  0.00    -0.006 A 
ATOM     12  C   UNL     1      48.687  82.428  40.513  0.00  0.00    -0.003 A 
ATOM     13  C   UNL     1      49.699  82.833  41.346  0.00  0.00    -0.005 A 
BRANCH   8  15
ATOM     14  C   UNL     1      50.218  85.182  44.123  0.00  0.00    +0.004 C 
ATOM     15  C   UNL     1      50.599  83.940  43.352  0.00  0.00    +0.019 C 
ATOM     16  C   UNL     1      51.773  84.176  42.449  0.00  0.00    +0.004 C 
ATOM     17  C   UNL     1      50.855  82.781  44.307  0.00  0.00    +0.004 C 
ENDBRANCH   8  15
ENDBRANCH   7  11
ENDBRANCH   1   7
BRANCH   4  18
ATOM     18  C   UNL     1      43.864  78.262  39.108  0.00  0.00    +0.103 C 
BRANCH  18  19
ATOM     19  C   UNL     1      43.879  77.449  40.342  0.00  0.00    -0.004 A 
ATOM     20  C   UNL     1      43.030  77.654  41.410  0.00  0.00    -0.002 A 
ATOM     21  C   UNL     1      43.121  76.832  42.536  0.00  0.00    +0.011 A 
ATOM     22  C   UNL     1      44.042  75.811  42.617  0.00  0.00    +0.058 A 
ATOM     23  C   UNL     1      44.887  75.603  41.557  0.00  0.00    +0.011 A 
ATOM     24  C   UNL     1      44.785  76.423  40.452  0.00  0.00    -0.002 A 
ATOM     25 CL   UNL     1      44.135  74.784  44.058  0.00  0.00    -0.082 Cl
ENDBRANCH  18  19
BRANCH  18  26
ATOM     26  C   UNL     1      42.534  78.141  38.457  0.00  0.00    -0.004 A 
ATOM     27  C   UNL     1      42.385  77.210  37.429  0.00  0.00    -0.003 A 
ATOM     28  C   UNL     1      41.185  77.046  36.776  0.00  0.00    -0.000 A 
ATOM     29  C   UNL     1      40.080  77.794  37.110  0.00  0.00    -0.000 A 
ATOM     30  C   UNL     1      40.206  78.717  38.120  0.00  0.00    -0.000 A 
ATOM     31  C   UNL     1      41.428  78.881  38.781  0.00  0.00    -0.003 A 
ENDBRANCH  18  26
ENDBRANCH   4  18
TORSDOF 6
