REMARK  Name = Budesonide
REMARK  4 active torsions:
REMARK  status: ('A' for Active; 'I' for Inactive)
REMARK    1  A    between atoms: C_2  and  C_3
REMARK    2  A    between atoms: C_3  and  C_4
REMARK    3  A    between atoms: C_23  and  C_25
REMARK    4  A    between atoms: C_25  and  C_27
REMARK                            x       y       z     vdW  Elec       q    Type
REMARK                         _______ _______ _______ _____ _____    ______ ____
ROOT
ATOM      1  C   UNL     1      50.379  83.796  42.122  0.00  0.00    +0.235 C 
ATOM      2  O   UNL     1      49.139  84.370  41.982  0.00  0.00    -0.330 OA
ATOM      3  C   UNL     1      48.174  83.431  42.316  0.00  0.00    +0.149 C 
ATOM      4  C   UNL     1      47.253  83.161  41.112  0.00  0.00    +0.033 C 
ATOM      5  C   UNL     1      47.110  81.694  41.236  0.00  0.00    +0.005 C 
ATOM      6  C   UNL     1      46.258  80.985  40.281  0.00  0.00    +0.004 C 
ATOM      7  C   UNL     1      46.595  80.993  38.845  0.00  0.00    +0.004 C 
ATOM      8  C   UNL     1      45.354  80.457  38.103  0.00  0.00    +0.022 C 
ATOM      9  C   UNL     1      44.528  79.645  39.070  0.00  0.00    -0.038 C 
ATOM     10  C   UNL     1      43.228  79.784  39.070  0.00  0.00    +0.034 C 
ATOM     11  C   UNL     1      42.402  79.029  39.977  0.00  0.00    +0.195 C 
ATOM     12  O   UNL     1      41.133  79.137  40.005  0.00  0.00    -0.287 OA
ATOM     13  C   UNL     1      43.019  78.099  40.907  0.00  0.00    +0.038 C 
ATOM     14  C   UNL     1      44.326  77.985  40.881  0.00  0.00    -0.020 C 
ATOM     15  C   UNL     1      45.231  78.722  39.983  0.00  0.00    +0.036 C 
ATOM     16  C   UNL     1      46.176  79.551  40.805  0.00  0.00    +0.038 C 
ATOM     17  C   UNL     1      47.538  78.964  40.927  0.00  0.00    +0.153 C 
ATOM     18  C   UNL     1      48.437  79.778  41.823  0.00  0.00    +0.036 C 
ATOM     19  C   UNL     1      48.501  81.213  41.432  0.00  0.00    +0.034 C 
ATOM     20  C   UNL     1      48.928  82.150  42.576  0.00  0.00    +0.173 C 
ATOM     21  O   UNL     1      50.280  82.476  42.428  0.00  0.00    -0.326 OA
ATOM     22  C   UNL     1      49.455  81.487  40.307  0.00  0.00    +0.003 C 
ATOM     23  O   UNL     1      47.394  77.711  41.568  0.00  0.00    -0.223 OA
ATOM     24  C   UNL     1      45.960  77.666  39.170  0.00  0.00    +0.009 C 
ENDROOT
BRANCH  20  25
ATOM     25  C   UNL     1      48.714  81.557  43.896  0.00  0.00    +0.210 C 
ATOM     26  O   UNL     1      47.674  81.743  44.492  0.00  0.00    -0.291 OA
BRANCH  25  27
ATOM     27  C   UNL     1      49.731  80.710  44.571  0.00  0.00    +0.248 C 
ATOM     28  O   UNL     1      49.831  80.904  45.925  0.00  0.00    -0.212 OA
ENDBRANCH  25  27
ENDBRANCH  20  25
BRANCH   1  29
ATOM     29  C   UNL     1      51.318  84.608  42.962  0.00  0.00    +0.061 C 
BRANCH  29  31
ATOM     30  C   UNL     1      50.892  85.534  45.180  0.00  0.00    +0.000 C 
ATOM     31  C   UNL     1      51.296  84.272  44.420  0.00  0.00    +0.005 C 
ENDBRANCH  29  31
ENDBRANCH   1  29
TORSDOF 4
