REMARK  Name = Budipine
REMARK  3 active torsions:
REMARK  status: ('A' for Active; 'I' for Inactive)
REMARK    1  A    between atoms: C_2  and  N_5
REMARK    2  A    between atoms: C_8  and  C_11
REMARK    3  A    between atoms: C_8  and  C_17
REMARK                            x       y       z     vdW  Elec       q    Type
REMARK                         _______ _______ _______ _____ _____    ______ ____
ROOT
ATOM      1  N   UNL     1      41.740  77.996  38.318  0.00  0.00    -0.275 NA
ATOM      2  C   UNL     1      41.702  79.112  39.181  0.00  0.00    +0.073 C 
ATOM      3  C   UNL     1      42.444  78.909  40.487  0.00  0.00    +0.025 C 
ATOM      4  C   UNL     1      43.868  78.471  40.254  0.00  0.00    +0.040 C 
ATOM      5  C   UNL     1      43.921  77.552  39.075  0.00  0.00    +0.025 C 
ATOM      6  C   UNL     1      42.520  76.932  38.897  0.00  0.00    +0.073 C 
ENDROOT
BRANCH   4   7
ATOM      7  C   UNL     1      44.455  77.712  41.387  0.00  0.00    -0.019 A 
ATOM      8  C   UNL     1      43.731  77.651  42.560  0.00  0.00    -0.004 A 
ATOM      9  C   UNL     1      44.190  76.969  43.667  0.00  0.00    -0.000 A 
ATOM     10  C   UNL     1      45.418  76.324  43.601  0.00  0.00    -0.000 A 
ATOM     11  C   UNL     1      46.169  76.367  42.438  0.00  0.00    -0.000 A 
ATOM     12  C   UNL     1      45.661  77.068  41.347  0.00  0.00    -0.004 A 
ENDBRANCH   4   7
BRANCH   4  13
ATOM     13  C   UNL     1      44.680  79.698  40.140  0.00  0.00    -0.019 A 
ATOM     14  C   UNL     1      45.133  80.482  41.145  0.00  0.00    -0.004 A 
ATOM     15  C   UNL     1      45.893  81.629  40.892  0.00  0.00    -0.000 A 
ATOM     16  C   UNL     1      46.191  81.973  39.590  0.00  0.00    -0.000 A 
ATOM     17  C   UNL     1      45.748  81.200  38.544  0.00  0.00    -0.000 A 
ATOM     18  C   UNL     1      45.002  80.079  38.836  0.00  0.00    -0.004 A 
ENDBRANCH   4  13
BRANCH   1  20
ATOM     19  C   UNL     1      39.664  76.753  38.600  0.00  0.00    +0.016 C 
ATOM     20  C   UNL     1      40.539  77.610  37.679  0.00  0.00    +0.046 C 
ATOM     21  C   UNL     1      40.912  76.706  36.497  0.00  0.00    +0.016 C 
ATOM     22  C   UNL     1      39.691  78.722  37.160  0.00  0.00    +0.016 C 
ENDBRANCH   1  20
TORSDOF 3
