REMARK  Name = Bufexamac
REMARK  6 active torsions:
REMARK  status: ('A' for Active; 'I' for Inactive)
REMARK    1  A    between atoms: C_2  and  C_3
REMARK    2  A    between atoms: C_3  and  C_4
REMARK    3  A    between atoms: C_4  and  O_5
REMARK    4  A    between atoms: O_5  and  C_6
REMARK    5  A    between atoms: C_9  and  C_12
REMARK    6  A    between atoms: C_12  and  C_13
REMARK                            x       y       z     vdW  Elec       q    Type
REMARK                         _______ _______ _______ _____ _____    ______ ____
ROOT
ATOM      1  C   UNL     1      48.481  82.540  42.268  0.00  0.00    +0.139 A 
ATOM      2  C   UNL     1      47.618  82.891  41.255  0.00  0.00    +0.037 A 
ATOM      3  C   UNL     1      46.864  81.948  40.565  0.00  0.00    -0.001 A 
ATOM      4  C   UNL     1      46.978  80.619  40.897  0.00  0.00    -0.013 A 
ATOM      5  C   UNL     1      47.830  80.237  41.903  0.00  0.00    -0.001 A 
ATOM      6  C   UNL     1      48.569  81.181  42.577  0.00  0.00    +0.037 A 
ENDROOT
BRANCH   1   7
ATOM      7  O   UNL     1      49.216  83.510  42.933  0.00  0.00    -0.475 OA
BRANCH   7   8
ATOM      8  C   UNL     1      50.564  83.208  43.243  0.00  0.00    +0.205 C 
BRANCH   8   9
ATOM      9  C   UNL     1      51.444  84.429  43.152  0.00  0.00    +0.047 C 
BRANCH   9  11
ATOM     10  C   UNL     1      52.122  84.079  40.793  0.00  0.00    +0.000 C 
ATOM     11  C   UNL     1      52.602  84.183  42.209  0.00  0.00    +0.004 C 
ENDBRANCH   9  11
ENDBRANCH   8   9
ENDBRANCH   7   8
ENDBRANCH   1   7
BRANCH   4  12
ATOM     12  C   UNL     1      46.191  79.587  40.184  0.00  0.00    +0.116 C 
BRANCH  12  13
ATOM     13  C   UNL     1      44.850  80.144  39.785  0.00  0.00    +0.275 C 
ATOM     14  O   UNL     1      43.807  79.547  40.134  0.00  0.00    -0.271 OA
ATOM     15  N   UNL     1      44.835  81.339  39.021  0.00  0.00    -0.028 NA
ATOM     16  O   UNL     1      44.190  81.351  37.841  0.00  0.00    -0.071 OA
ENDBRANCH  12  13
ENDBRANCH   4  12
TORSDOF 6
