REMARK  Name = Buflomedil
REMARK  8 active torsions:
REMARK  status: ('A' for Active; 'I' for Inactive)
REMARK    1  A    between atoms: O_2  and  C_3
REMARK    2  A    between atoms: C_5  and  O_21
REMARK    3  A    between atoms: C_6  and  C_11
REMARK    4  A    between atoms: C_7  and  O_9
REMARK    5  A    between atoms: C_11  and  C_13
REMARK    6  A    between atoms: C_13  and  C_14
REMARK    7  A    between atoms: C_14  and  C_15
REMARK    8  A    between atoms: C_15  and  N_16
REMARK                            x       y       z     vdW  Elec       q    Type
REMARK                         _______ _______ _______ _____ _____    ______ ____
ROOT
ATOM      1  C   UNL     1      48.657  81.122  41.452  0.00  0.00    +0.145 A 
ATOM      2  C   UNL     1      48.349  81.885  40.347  0.00  0.00    +0.074 A 
ATOM      3  C   UNL     1      47.163  81.738  39.645  0.00  0.00    +0.147 A 
ATOM      4  C   UNL     1      46.291  80.785  40.102  0.00  0.00    +0.103 A 
ATOM      5  C   UNL     1      46.526  79.973  41.208  0.00  0.00    +0.147 A 
ATOM      6  C   UNL     1      47.722  80.166  41.864  0.00  0.00    +0.074 A 
ENDROOT
BRANCH   1   8
ATOM      7  C   UNL     1      49.793  81.814  43.447  0.00  0.00    +0.252 C 
ATOM      8  O   UNL     1      49.849  81.280  42.145  0.00  0.00    -0.471 OA
ENDBRANCH   1   8
BRANCH   5   9
ATOM      9  O   UNL     1      45.593  79.025  41.614  0.00  0.00    -0.471 OA
ATOM     10  C   UNL     1      46.005  77.969  42.451  0.00  0.00    +0.252 C 
ENDBRANCH   5   9
BRANCH   4  11
ATOM     11  C   UNL     1      45.019  80.571  39.414  0.00  0.00    +0.179 C 
ATOM     12  O   UNL     1      44.497  81.478  38.715  0.00  0.00    -0.291 OA
BRANCH  11  13
ATOM     13  C   UNL     1      44.401  79.236  39.597  0.00  0.00    +0.071 C 
BRANCH  13  14
ATOM     14  C   UNL     1      43.056  79.087  38.955  0.00  0.00    +0.025 C 
BRANCH  14  15
ATOM     15  C   UNL     1      42.508  77.704  39.043  0.00  0.00    +0.073 C 
BRANCH  15  16
ATOM     16  N   UNL     1      41.158  77.578  38.587  0.00  0.00    -0.273 NA
ATOM     17  C   UNL     1      40.563  76.298  38.824  0.00  0.00    +0.072 C 
ATOM     18  C   UNL     1      40.315  75.671  37.472  0.00  0.00    +0.019 C 
ATOM     19  C   UNL     1      40.076  76.873  36.606  0.00  0.00    +0.019 C 
ATOM     20  C   UNL     1      40.918  77.944  37.231  0.00  0.00    +0.072 C 
ENDBRANCH  15  16
ENDBRANCH  14  15
ENDBRANCH  13  14
ENDBRANCH  11  13
ENDBRANCH   4  11
BRANCH   3  21
ATOM     21  O   UNL     1      46.857  82.518  38.522  0.00  0.00    -0.471 OA
ATOM     22  C   UNL     1      47.877  83.387  38.065  0.00  0.00    +0.252 C 
ENDBRANCH   3  21
TORSDOF 8
