REMARK  Name = Bumetanide
REMARK  8 active torsions:
REMARK  status: ('A' for Active; 'I' for Inactive)
REMARK    1  A    between atoms: C_2  and  C_3
REMARK    2  A    between atoms: C_3  and  C_4
REMARK    3  A    between atoms: C_4  and  N_5
REMARK    4  A    between atoms: N_5  and  C_6
REMARK    5  A    between atoms: C_7  and  O_19
REMARK    6  A    between atoms: C_8  and  S_15
REMARK    7  A    between atoms: C_10  and  C_12
REMARK    8  A    between atoms: O_19  and  C_20
REMARK                            x       y       z     vdW  Elec       q    Type
REMARK                         _______ _______ _______ _____ _____    ______ ____
ROOT
ATOM      1  C   UNL     1      47.584  82.067  40.288  0.00  0.00    +0.101 A 
ATOM      2  C   UNL     1      47.498  81.124  41.313  0.00  0.00    +0.178 A 
ATOM      3  C   UNL     1      46.573  80.114  41.234  0.00  0.00    +0.161 A 
ATOM      4  C   UNL     1      45.749  80.067  40.127  0.00  0.00    +0.030 A 
ATOM      5  C   UNL     1      45.808  80.980  39.100  0.00  0.00    +0.083 A 
ATOM      6  C   UNL     1      46.742  81.992  39.188  0.00  0.00    +0.026 A 
ENDROOT
BRANCH   3   7
ATOM      7  S   UNL     1      46.425  78.896  42.507  0.00  0.00    +0.096 S 
ATOM      8  O   UNL     1      46.585  79.546  43.852  0.00  0.00    -0.150 OA
ATOM      9  O   UNL     1      45.097  78.225  42.476  0.00  0.00    -0.150 OA
ATOM     10  N   UNL     1      47.722  77.736  42.373  0.00  0.00    +0.039 NA
ENDBRANCH   3   7
BRANCH   5  11
ATOM     11  C   UNL     1      44.919  80.902  37.939  0.00  0.00    +0.388 C 
ATOM     12  O   UNL     1      44.230  79.880  37.705  0.00  0.00    -0.241 OA
ATOM     13  O   UNL     1      44.869  82.010  37.103  0.00  0.00    -0.241 OA
ENDBRANCH   5  11
BRANCH   1  14
ATOM     14  N   UNL     1      48.532  83.124  40.343  0.00  0.00    -0.234 NA
BRANCH  14  15
ATOM     15  C   UNL     1      49.899  82.858  39.997  0.00  0.00    +0.112 C 
BRANCH  15  16
ATOM     16  C   UNL     1      50.786  84.051  40.048  0.00  0.00    +0.023 C 
BRANCH  16  18
ATOM     17  C   UNL     1      52.080  83.266  42.047  0.00  0.00    +0.000 C 
ATOM     18  C   UNL     1      51.137  84.309  41.507  0.00  0.00    +0.002 C 
ENDBRANCH  16  18
ENDBRANCH  15  16
ENDBRANCH  14  15
ENDBRANCH   1  14
BRANCH   2  19
ATOM     19  O   UNL     1      48.335  81.215  42.385  0.00  0.00    -0.451 OA
BRANCH  19  20
ATOM     20  C   UNL     1      48.651  82.361  43.070  0.00  0.00    +0.145 A 
ATOM     21  C   UNL     1      47.868  83.487  43.038  0.00  0.00    +0.037 A 
ATOM     22  C   UNL     1      48.212  84.641  43.745  0.00  0.00    +0.003 A 
ATOM     23  C   UNL     1      49.368  84.649  44.494  0.00  0.00    +0.000 A 
ATOM     24  C   UNL     1      50.166  83.535  44.541  0.00  0.00    +0.003 A 
ATOM     25  C   UNL     1      49.801  82.392  43.826  0.00  0.00    +0.037 A 
ENDBRANCH  19  20
ENDBRANCH   2  19
TORSDOF 8
