REMARK  Name = Bunazosin
REMARK  4 active torsions:
REMARK  status: ('A' for Active; 'I' for Inactive)
REMARK    1  A    between atoms: C_2  and  C_3
REMARK    2  A    between atoms: C_3  and  C_4
REMARK    3  A    between atoms: C_17  and  O_26
REMARK    4  A    between atoms: C_18  and  O_24
REMARK                            x       y       z     vdW  Elec       q    Type
REMARK                         _______ _______ _______ _____ _____    ______ ____
ROOT
ATOM      1  C   UNL     1      51.368  81.855  43.360  0.00  0.00    +0.226 C 
ATOM      2  O   UNL     1      52.123  82.861  43.347  0.00  0.00    -0.275 OA
ATOM      3  N   UNL     1      49.989  82.013  42.998  0.00  0.00    -0.278 N 
ATOM      4  C   UNL     1      49.569  83.389  42.833  0.00  0.00    +0.095 C 
ATOM      5  C   UNL     1      48.143  83.519  42.415  0.00  0.00    +0.043 C 
ATOM      6  C   UNL     1      47.967  83.094  40.974  0.00  0.00    +0.095 C 
ATOM      7  N   UNL     1      47.846  81.668  40.942  0.00  0.00    -0.276 N 
ATOM      8  C   UNL     1      48.784  80.681  41.377  0.00  0.00    +0.115 C 
ATOM      9  C   UNL     1      49.178  80.849  42.837  0.00  0.00    +0.115 C 
ATOM     10  C   UNL     1      46.623  81.153  40.402  0.00  0.00    +0.221 A 
ATOM     11  N   UNL     1      46.112  79.986  40.825  0.00  0.00    -0.213 NA
ATOM     12  C   UNL     1      44.963  79.487  40.329  0.00  0.00    +0.090 A 
ATOM     13  C   UNL     1      44.440  78.281  40.770  0.00  0.00    +0.059 A 
ATOM     14  C   UNL     1      43.263  77.823  40.225  0.00  0.00    +0.174 A 
ATOM     15  C   UNL     1      42.630  78.573  39.254  0.00  0.00    +0.173 A 
ATOM     16  C   UNL     1      43.129  79.755  38.811  0.00  0.00    +0.044 A 
ATOM     17  C   UNL     1      44.316  80.227  39.354  0.00  0.00    +0.056 A 
ATOM     18  C   UNL     1      44.828  81.439  38.902  0.00  0.00    +0.174 A 
ATOM     19  N   UNL     1      45.974  81.850  39.456  0.00  0.00    -0.195 NA
ATOM     20  N   UNL     1      44.137  82.166  37.903  0.00  0.00    -0.107 NA
ENDROOT
BRANCH  15  21
ATOM     21  O   UNL     1      41.444  78.091  38.719  0.00  0.00    -0.468 OA
ATOM     22  C   UNL     1      41.061  78.403  37.403  0.00  0.00    +0.253 C 
ENDBRANCH  15  21
BRANCH  14  23
ATOM     23  O   UNL     1      42.684  76.611  40.629  0.00  0.00    -0.468 OA
ATOM     24  C   UNL     1      43.344  75.801  41.580  0.00  0.00    +0.253 C 
ENDBRANCH  14  23
BRANCH   1  25
ATOM     25  C   UNL     1      51.948  80.566  43.748  0.00  0.00    +0.085 C 
BRANCH  25  27
ATOM     26  C   UNL     1      51.918  78.566  42.243  0.00  0.00    +0.001 C 
ATOM     27  C   UNL     1      52.550  79.898  42.549  0.00  0.00    +0.010 C 
ENDBRANCH  25  27
ENDBRANCH   1  25
TORSDOF 4
