REMARK  Name = Buprenorphine
REMARK  5 active torsions:
REMARK  status: ('A' for Active; 'I' for Inactive)
REMARK    1  A    between atoms: C_2  and  C_5
REMARK    2  A    between atoms: C_5  and  C_7
REMARK    3  A    between atoms: C_12  and  O_32
REMARK    4  A    between atoms: N_17  and  C_28
REMARK    5  A    between atoms: C_28  and  C_29
REMARK                            x       y       z     vdW  Elec       q    Type
REMARK                         _______ _______ _______ _____ _____    ______ ____
ROOT
ATOM      1  C   UNL     1      46.126  77.446  41.949  0.00  0.00    +0.056 C 
ATOM      2  C   UNL     1      46.674  78.497  42.846  0.00  0.00    +0.007 C 
ATOM      3  C   UNL     1      46.753  79.789  42.077  0.00  0.00    +0.021 C 
ATOM      4  C   UNL     1      45.352  80.336  42.111  0.00  0.00    +0.004 C 
ATOM      5  C   UNL     1      44.459  79.273  41.475  0.00  0.00    +0.031 C 
ATOM      6  C   UNL     1      45.246  78.126  40.880  0.00  0.00    +0.132 C 
ATOM      7  C   UNL     1      46.257  78.642  39.877  0.00  0.00    +0.194 C 
ATOM      8  C   UNL     1      47.124  79.583  40.629  0.00  0.00    +0.063 C 
ATOM      9  C   UNL     1      48.584  79.448  40.374  0.00  0.00    +0.025 C 
ATOM     10  C   UNL     1      49.440  79.283  41.601  0.00  0.00    +0.073 C 
ATOM     11  N   UNL     1      49.050  80.122  42.688  0.00  0.00    -0.274 NA
ATOM     12  C   UNL     1      47.801  80.734  42.618  0.00  0.00    +0.062 C 
ATOM     13  C   UNL     1      47.950  82.016  41.813  0.00  0.00    +0.042 C 
ATOM     14  C   UNL     1      47.146  82.058  40.583  0.00  0.00    -0.022 A 
ATOM     15  C   UNL     1      46.691  80.897  40.029  0.00  0.00    +0.014 A 
ATOM     16  C   UNL     1      45.900  80.736  38.952  0.00  0.00    +0.173 A 
ATOM     17  C   UNL     1      45.507  81.913  38.329  0.00  0.00    +0.229 A 
ATOM     18  C   UNL     1      45.929  83.152  38.828  0.00  0.00    +0.045 A 
ATOM     19  C   UNL     1      46.754  83.206  39.964  0.00  0.00    -0.001 A 
ATOM     20  O   UNL     1      44.690  81.811  37.209  0.00  0.00    -0.283 OA
ATOM     21  O   UNL     1      45.700  79.359  38.784  0.00  0.00    -0.474 OA
ENDROOT
BRANCH   1  22
ATOM     22  C   UNL     1      45.468  76.275  42.559  0.00  0.00    +0.129 C 
ATOM     23  C   UNL     1      44.936  76.509  43.974  0.00  0.00    +0.033 C 
ATOM     24  O   UNL     1      44.283  75.929  41.831  0.00  0.00    -0.226 OA
BRANCH  22  26
ATOM     25  C   UNL     1      47.432  74.915  41.693  0.00  0.00    +0.002 C 
ATOM     26  C   UNL     1      46.257  74.997  42.607  0.00  0.00    +0.026 C 
ATOM     27  C   UNL     1      45.376  73.778  42.364  0.00  0.00    +0.002 C 
ATOM     28  C   UNL     1      46.807  74.832  44.038  0.00  0.00    +0.002 C 
ENDBRANCH  22  26
ENDBRANCH   1  22
BRANCH   6  29
ATOM     29  O   UNL     1      44.392  77.213  40.318  0.00  0.00    -0.352 OA
ATOM     30  C   UNL     1      43.623  77.614  39.273  0.00  0.00    +0.174 C 
ENDBRANCH   6  29
BRANCH  11  31
ATOM     31  C   UNL     1      49.762  79.944  43.867  0.00  0.00    +0.072 C 
BRANCH  31  32
ATOM     32  C   UNL     1      50.741  81.028  44.257  0.00  0.00    +0.016 C 
ATOM     33  C   UNL     1      50.827  82.161  43.194  0.00  0.00    +0.001 C 
ATOM     34  C   UNL     1      50.272  82.394  44.554  0.00  0.00    +0.001 C 
ENDBRANCH  31  32
ENDBRANCH  11  31
TORSDOF 5
