REMARK  Name = Buprenorphine_+_naloxone
REMARK  5 active torsions:
REMARK  status: ('A' for Active; 'I' for Inactive)
REMARK    1  A    between atoms: C_2  and  C_5
REMARK    2  A    between atoms: C_5  and  C_7
REMARK    3  A    between atoms: C_12  and  O_32
REMARK    4  A    between atoms: N_17  and  C_28
REMARK    5  A    between atoms: C_28  and  C_29
REMARK                            x       y       z     vdW  Elec       q    Type
REMARK                         _______ _______ _______ _____ _____    ______ ____
ROOT
ATOM      1  C   UNL     1      46.550  77.756  42.368  0.00  0.00    +0.056 C 
ATOM      2  C   UNL     1      46.744  79.225  42.765  0.00  0.00    +0.007 C 
ATOM      3  C   UNL     1      47.978  79.744  42.141  0.00  0.00    +0.021 C 
ATOM      4  C   UNL     1      49.076  78.662  42.138  0.00  0.00    +0.004 C 
ATOM      5  C   UNL     1      48.614  77.501  41.285  0.00  0.00    +0.031 C 
ATOM      6  C   UNL     1      47.108  77.644  40.929  0.00  0.00    +0.132 C 
ATOM      7  C   UNL     1      46.764  78.837  40.270  0.00  0.00    +0.194 C 
ATOM      8  C   UNL     1      47.769  79.860  40.667  0.00  0.00    +0.063 C 
ATOM      9  C   UNL     1      48.987  80.034  39.868  0.00  0.00    +0.025 C 
ATOM     10  C   UNL     1      49.715  81.261  40.451  0.00  0.00    +0.073 C 
ATOM     11  N   UNL     1      49.804  81.157  41.881  0.00  0.00    -0.274 NA
ATOM     12  C   UNL     1      48.473  81.079  42.515  0.00  0.00    +0.062 C 
ATOM     13  C   UNL     1      47.752  82.295  42.118  0.00  0.00    +0.042 C 
ATOM     14  C   UNL     1      46.945  82.200  40.885  0.00  0.00    -0.022 A 
ATOM     15  C   UNL     1      46.942  81.015  40.283  0.00  0.00    +0.014 A 
ATOM     16  C   UNL     1      46.289  80.613  39.148  0.00  0.00    +0.173 A 
ATOM     17  C   UNL     1      45.522  81.613  38.543  0.00  0.00    +0.229 A 
ATOM     18  C   UNL     1      45.474  82.899  39.119  0.00  0.00    +0.045 A 
ATOM     19  C   UNL     1      46.195  83.176  40.298  0.00  0.00    -0.001 A 
ATOM     20  O   UNL     1      44.853  81.269  37.407  0.00  0.00    -0.283 OA
ATOM     21  O   UNL     1      46.620  79.243  38.953  0.00  0.00    -0.474 OA
ENDROOT
BRANCH   1  22
ATOM     22  C   UNL     1      45.217  77.288  42.665  0.00  0.00    +0.129 C 
ATOM     23  C   UNL     1      44.044  78.232  42.602  0.00  0.00    +0.033 C 
ATOM     24  O   UNL     1      45.286  77.142  44.106  0.00  0.00    -0.226 OA
BRANCH  22  26
ATOM     25  C   UNL     1      43.611  75.356  42.974  0.00  0.00    +0.002 C 
ATOM     26  C   UNL     1      44.752  75.949  42.213  0.00  0.00    +0.026 C 
ATOM     27  C   UNL     1      44.226  76.109  40.766  0.00  0.00    +0.002 C 
ATOM     28  C   UNL     1      45.821  74.903  42.049  0.00  0.00    +0.002 C 
ENDBRANCH  22  26
ENDBRANCH   1  22
BRANCH   6  29
ATOM     29  O   UNL     1      46.782  76.492  40.315  0.00  0.00    -0.352 OA
ATOM     30  C   UNL     1      47.759  75.888  39.576  0.00  0.00    +0.174 C 
ENDBRANCH   6  29
BRANCH  11  31
ATOM     31  C   UNL     1      50.658  82.134  42.444  0.00  0.00    +0.072 C 
BRANCH  31  32
ATOM     32  C   UNL     1      50.066  82.819  43.659  0.00  0.00    +0.016 C 
ATOM     33  C   UNL     1      49.804  84.312  43.596  0.00  0.00    +0.001 C 
ATOM     34  C   UNL     1      48.667  83.359  43.603  0.00  0.00    +0.001 C 
ENDBRANCH  31  32
ENDBRANCH  11  31
TORSDOF 5
