REMARK  Name = Buserelin_acetate
REMARK  33 active torsions:
REMARK  status: ('A' for Active; 'I' for Inactive)
REMARK    1  A    between atoms: C_2  and  N_3
REMARK    2  A    between atoms: C_4  and  C_6
REMARK    3  A    between atoms: C_11  and  C_13
REMARK    4  A    between atoms: C_13  and  C_14
REMARK    5  A    between atoms: C_13  and  N_21
REMARK    6  A    between atoms: C_14  and  C_15
REMARK    7  A    between atoms: C_15  and  C_16
REMARK    8  A    between atoms: C_16  and  N_17
REMARK    9  A    between atoms: C_22  and  C_24
REMARK   10  A    between atoms: C_24  and  C_25
REMARK   11  A    between atoms: C_24  and  N_29
REMARK   12  A    between atoms: C_25  and  C_26
REMARK   13  A    between atoms: C_30  and  C_32
REMARK   14  A    between atoms: C_32  and  C_33
REMARK   15  A    between atoms: C_32  and  N_39
REMARK   16  A    between atoms: C_33  and  O_34
REMARK   17  A    between atoms: O_34  and  C_35
REMARK   18  A    between atoms: C_40  and  C_42
REMARK   19  A    between atoms: C_42  and  C_43
REMARK   20  A    between atoms: C_42  and  N_51
REMARK   21  A    between atoms: C_43  and  C_44
REMARK   22  A    between atoms: C_52  and  CA_54
REMARK   23  A    between atoms: CA_54  and  C_55
REMARK   24  A    between atoms: CA_54  and  N_57
REMARK   25  A    between atoms: C_58  and  CA_60
REMARK   26  A    between atoms: CA_60  and  CB_61
REMARK   27  A    between atoms: CA_60  and  N_71
REMARK   28  A    between atoms: CB_61  and  CG_62
REMARK   29  A    between atoms: C_72  and  CA_74
REMARK   30  A    between atoms: CA_74  and  CB_75
REMARK   31  A    between atoms: CA_74  and  N_81
REMARK   32  A    between atoms: CB_75  and  CG_76
REMARK   33  A    between atoms: C_82  and  CA_84
REMARK                            x       y       z     vdW  Elec       q    Type
REMARK                         _______ _______ _______ _____ _____    ______ ____
ROOT
ATOM      1  C   UNL     1      44.059  76.819  41.726  0.00  0.00    +0.177 C 
ENDROOT
BRANCH   1   3
ATOM      2  N   UNL     1      44.716  74.749  42.888  0.00  0.00    -0.194 NA
ATOM      3  C   UNL     1      43.887  75.851  42.923  0.00  0.00    +0.262 C 
ATOM      4  O   UNL     1      43.120  76.053  43.861  0.00  0.00    -0.271 OA
BRANCH   2   5
ATOM      5  C   UNL     1      44.953  73.925  44.082  0.00  0.00    +0.202 C 
BRANCH   5   7
ATOM      6  N   UNL     1      42.531  73.378  44.281  0.00  0.00    -0.196 NA
ATOM      7  C   UNL     1      43.822  72.926  44.449  0.00  0.00    +0.264 C 
ATOM      8  O   UNL     1      44.062  71.825  44.951  0.00  0.00    -0.271 OA
BRANCH   6   9
ATOM      9  C   UNL     1      41.383  72.602  44.763  0.00  0.00    +0.173 C 
BRANCH   9  11
ATOM     10  N   UNL     1      38.917  72.916  44.904  0.00  0.00    -0.196 NA
ATOM     11  C   UNL     1      40.140  73.536  44.742  0.00  0.00    +0.262 C 
ATOM     12  O   UNL     1      40.249  74.759  44.627  0.00  0.00    -0.271 OA
BRANCH  10  13
ATOM     13  C   UNL     1      37.685  73.601  44.480  0.00  0.00    +0.171 C 
BRANCH  13  19
ATOM     14  C   UNL     1      38.057  74.016  40.637  0.00  0.00    +0.154 C 
ATOM     15  C   UNL     1      38.237  75.404  39.999  0.00  0.00    +0.031 C 
ATOM     16  C   UNL     1      37.936  76.381  41.129  0.00  0.00    +0.024 C 
ATOM     17  C   UNL     1      38.432  75.643  42.356  0.00  0.00    +0.094 C 
ATOM     18  N   UNL     1      38.059  74.269  42.076  0.00  0.00    -0.272 N 
ATOM     19  C   UNL     1      37.607  73.319  42.960  0.00  0.00    +0.246 C 
ATOM     20  O   UNL     1      37.289  72.192  42.552  0.00  0.00    -0.273 OA
BRANCH  14  22
ATOM     21  N   UNL     1      38.817  71.794  39.936  0.00  0.00    -0.204 NA
ATOM     22  C   UNL     1      39.225  73.073  40.280  0.00  0.00    +0.259 C 
ATOM     23  O   UNL     1      40.410  73.409  40.340  0.00  0.00    -0.272 OA
BRANCH  21  25
ATOM     24  C   UNL     1      39.741  70.540  38.061  0.00  0.00    +0.025 C 
ATOM     25  C   UNL     1      39.755  70.760  39.562  0.00  0.00    +0.115 C 
ENDBRANCH  21  25
ENDBRANCH  14  22
ENDBRANCH  13  19
BRANCH  13  26
ATOM     26  C   UNL     1      36.489  72.963  45.203  0.00  0.00    +0.033 C 
BRANCH  26  27
ATOM     27  C   UNL     1      35.118  73.537  44.825  0.00  0.00    +0.029 C 
BRANCH  27  28
ATOM     28  C   UNL     1      34.843  74.935  45.376  0.00  0.00    +0.129 C 
BRANCH  28  29
ATOM     29  N   UNL     1      35.508  75.935  44.545  0.00  0.00    -0.234 NA
ATOM     30  C   UNL     1      34.833  76.972  44.216  0.00  0.00    +0.284 C 
ATOM     31  N   UNL     1      35.143  77.976  43.365  0.00  0.00    -0.104 NA
ATOM     32  N   UNL     1      33.614  77.191  44.751  0.00  0.00    -0.104 NA
ENDBRANCH  28  29
ENDBRANCH  27  28
ENDBRANCH  26  27
ENDBRANCH  13  26
ENDBRANCH  10  13
ENDBRANCH   9  11
BRANCH   9  33
ATOM     33  C   UNL     1      41.176  71.332  43.898  0.00  0.00    +0.031 C 
BRANCH  33  34
ATOM     34  C   UNL     1      42.033  70.099  44.283  0.00  0.00    +0.002 C 
ATOM     35  C   UNL     1      41.866  69.583  45.717  0.00  0.00    +0.000 C 
ATOM     36  C   UNL     1      41.733  68.954  43.303  0.00  0.00    +0.000 C 
ENDBRANCH  33  34
ENDBRANCH   9  33
ENDBRANCH   6   9
ENDBRANCH   5   7
BRANCH   5  37
ATOM     37  C   UNL     1      46.242  73.098  43.895  0.00  0.00    +0.173 C 
BRANCH  37  38
ATOM     38  O   UNL     1      47.324  73.970  43.539  0.00  0.00    -0.356 OA
BRANCH  38  39
ATOM     39  C   UNL     1      48.618  73.355  43.381  0.00  0.00    +0.093 C 
ATOM     40  C   UNL     1      48.544  71.981  42.698  0.00  0.00    +0.030 C 
ATOM     41  C   UNL     1      49.331  73.252  44.736  0.00  0.00    +0.030 C 
ATOM     42  C   UNL     1      49.407  74.311  42.475  0.00  0.00    +0.030 C 
ENDBRANCH  38  39
ENDBRANCH  37  38
ENDBRANCH   5  37
ENDBRANCH   2   5
ENDBRANCH   1   3
BRANCH   1  43
ATOM     43  N   UNL     1      43.982  76.101  40.443  0.00  0.00    -0.196 NA
ATOM     44  C   UNL     1      45.081  75.472  39.910  0.00  0.00    +0.264 C 
ATOM     45  O   UNL     1      46.160  75.477  40.498  0.00  0.00    -0.271 OA
BRANCH  44  46
ATOM     46  CA  UNL     1      44.885  74.919  38.484  0.00  0.00    +0.205 C 
BRANCH  46  47
ATOM     47  N   UNL     1      43.558  74.339  38.237  0.00  0.00    -0.194 NA
ATOM     48  C   UNL     1      42.642  74.889  37.373  0.00  0.00    +0.262 C 
ATOM     49  O   UNL     1      42.788  76.019  36.895  0.00  0.00    -0.271 OA
BRANCH  48  50
ATOM     50  CA  UNL     1      41.377  74.048  37.090  0.00  0.00    +0.177 C 
BRANCH  50  51
ATOM     51  N   UNL     1      40.474  74.858  36.271  0.00  0.00    -0.196 NA
ATOM     52  C   UNL     1      39.111  74.744  36.350  0.00  0.00    +0.262 C 
ATOM     53  O   UNL     1      38.550  73.991  37.156  0.00  0.00    -0.271 OA
BRANCH  52  54
ATOM     54  CA  UNL     1      38.302  75.578  35.340  0.00  0.00    +0.179 C 
BRANCH  54  55
ATOM     55  N   UNL     1      36.883  75.393  35.653  0.00  0.00    -0.196 NA
ATOM     56  C   UNL     1      35.933  75.305  34.663  0.00  0.00    +0.262 C 
ATOM     57  O   UNL     1      36.190  75.535  33.480  0.00  0.00    -0.271 OA
BRANCH  56  58
ATOM     58  CA  UNL     1      34.514  74.974  35.156  0.00  0.00    +0.173 C 
ATOM     59  C   UNL     1      34.434  73.763  36.076  0.00  0.00    +0.041 C 
ATOM     60  C   UNL     1      33.071  73.143  35.772  0.00  0.00    +0.089 C 
ATOM     61  C   UNL     1      32.824  73.553  34.346  0.00  0.00    +0.242 C 
ATOM     62  O   UNL     1      32.003  73.073  33.585  0.00  0.00    -0.273 OA
ATOM     63  N   UNL     1      33.664  74.607  34.053  0.00  0.00    -0.198 NA
ENDBRANCH  56  58
ENDBRANCH  54  55
BRANCH  54  64
ATOM     64  CB  UNL     1      38.693  77.065  35.300  0.00  0.00    +0.079 C 
BRANCH  64  65
ATOM     65  CG  UNL     1      38.639  77.750  36.625  0.00  0.00    +0.082 A 
ATOM     66  CD2 UNL     1      37.586  78.136  37.422  0.00  0.00    +0.115 A 
ATOM     67  NE2 UNL     1      38.027  78.739  38.566  0.00  0.00    -0.221 NA
ATOM     68  CE1 UNL     1      39.338  78.742  38.473  0.00  0.00    +0.199 A 
ATOM     69  ND1 UNL     1      39.758  78.146  37.319  0.00  0.00    -0.227 NA
ENDBRANCH  64  65
ENDBRANCH  54  64
ENDBRANCH  52  54
ENDBRANCH  50  51
BRANCH  50  70
ATOM     70  CB  UNL     1      41.643  72.673  36.458  0.00  0.00    +0.059 C 
BRANCH  70  71
ATOM     71  CG  UNL     1      42.275  72.720  35.090  0.00  0.00    +0.001 A 
ATOM     72  CD1 UNL     1      41.662  73.082  33.906  0.00  0.00    +0.095 A 
ATOM     73  NE1 UNL     1      42.590  73.025  32.901  0.00  0.00    -0.244 NA
ATOM     74  CE2 UNL     1      43.798  72.597  33.393  0.00  0.00    +0.081 A 
ATOM     75  CZ2 UNL     1      45.015  72.391  32.736  0.00  0.00    +0.019 A 
ATOM     76  CH2 UNL     1      46.087  71.911  33.496  0.00  0.00    +0.002 A 
ATOM     77  CZ3 UNL     1      45.938  71.632  34.850  0.00  0.00    +0.000 A 
ATOM     78  CE3 UNL     1      44.713  71.844  35.491  0.00  0.00    +0.001 A 
ATOM     79  CD2 UNL     1      43.623  72.359  34.757  0.00  0.00    +0.015 A 
ENDBRANCH  70  71
ENDBRANCH  50  70
ENDBRANCH  48  50
ENDBRANCH  46  47
BRANCH  46  80
ATOM     80  C   UNL     1      46.001  73.918  38.160  0.00  0.00    +0.213 C 
ATOM     81  O   UNL     1      46.757  74.363  37.028  0.00  0.00    -0.218 OA
ENDBRANCH  46  80
ENDBRANCH  44  46
ENDBRANCH   1  43
BRANCH   1  82
ATOM     82  C   UNL     1      43.049  77.978  41.805  0.00  0.00    +0.057 C 
BRANCH  82  83
ATOM     83  C   UNL     1      43.377  79.102  40.840  0.00  0.00    -0.020 A 
ATOM     84  C   UNL     1      43.012  79.011  39.488  0.00  0.00    -0.001 A 
ATOM     85  C   UNL     1      43.345  80.029  38.596  0.00  0.00    +0.042 A 
ATOM     86  C   UNL     1      44.049  81.139  39.046  0.00  0.00    +0.196 A 
ATOM     87  C   UNL     1      44.413  81.256  40.383  0.00  0.00    +0.042 A 
ATOM     88  C   UNL     1      44.081  80.234  41.277  0.00  0.00    -0.001 A 
ATOM     89  O   UNL     1      44.378  82.095  38.135  0.00  0.00    -0.287 OA
ENDBRANCH  82  83
ENDBRANCH   1  82
TORSDOF 33
REMARK  Name = Buserelin_acetate
REMARK  33 active torsions:
REMARK  status: ('A' for Active; 'I' for Inactive)
REMARK    1  A    between atoms: C_2  and  N_3
REMARK    2  A    between atoms: C_4  and  C_6
REMARK    3  A    between atoms: C_11  and  C_13
REMARK    4  A    between atoms: C_13  and  C_14
REMARK    5  A    between atoms: C_13  and  N_21
REMARK    6  A    between atoms: C_14  and  C_15
REMARK    7  A    between atoms: C_15  and  C_16
REMARK    8  A    between atoms: C_16  and  N_17
REMARK    9  A    between atoms: C_22  and  C_24
REMARK   10  A    between atoms: C_24  and  C_25
REMARK   11  A    between atoms: C_24  and  N_29
REMARK   12  A    between atoms: C_25  and  C_26
REMARK   13  A    between atoms: C_30  and  C_32
REMARK   14  A    between atoms: C_32  and  C_33
REMARK   15  A    between atoms: C_32  and  N_39
REMARK   16  A    between atoms: C_33  and  O_34
REMARK   17  A    between atoms: O_34  and  C_35
REMARK   18  A    between atoms: C_40  and  C_42
REMARK   19  A    between atoms: C_42  and  C_43
REMARK   20  A    between atoms: C_42  and  N_51
REMARK   21  A    between atoms: C_43  and  C_44
REMARK   22  A    between atoms: C_52  and  CA_54
REMARK   23  A    between atoms: CA_54  and  C_55
REMARK   24  A    between atoms: CA_54  and  N_57
REMARK   25  A    between atoms: C_58  and  CA_60
REMARK   26  A    between atoms: CA_60  and  CB_61
REMARK   27  A    between atoms: CA_60  and  N_71
REMARK   28  A    between atoms: CB_61  and  CG_62
REMARK   29  A    between atoms: C_72  and  CA_74
REMARK   30  A    between atoms: CA_74  and  CB_75
REMARK   31  A    between atoms: CA_74  and  N_81
REMARK   32  A    between atoms: CB_75  and  CG_76
REMARK   33  A    between atoms: C_82  and  CA_84
REMARK                            x       y       z     vdW  Elec       q    Type
REMARK                         _______ _______ _______ _____ _____    ______ ____
ROOT
ATOM      1  C   UNL     1      38.460  75.420  40.383  0.00  0.00    +0.126 C 
ATOM      2  C   UNL     1      39.293  76.517  39.806  0.00  0.00    +0.365 C 
ATOM      3  O   UNL     1      39.837  76.519  38.716  0.00  0.00    -0.246 OA
ATOM      4  O   UNL     1      39.410  77.569  40.635  0.00  0.00    -0.246 OA
ENDROOT
TORSDOF 0
