REMARK  Name = Buspirone
REMARK  5 active torsions:
REMARK  status: ('A' for Active; 'I' for Inactive)
REMARK    1  A    between atoms: N_9  and  C_13
REMARK    2  A    between atoms: C_13  and  C_14
REMARK    3  A    between atoms: C_14  and  C_15
REMARK    4  A    between atoms: C_15  and  C_16
REMARK    5  A    between atoms: C_16  and  N_17
REMARK                            x       y       z     vdW  Elec       q    Type
REMARK                         _______ _______ _______ _____ _____    ______ ____
ROOT
ATOM      1  C   UNL     1      44.050  78.732  39.762  0.00  0.00    +0.023 C 
ENDROOT
BRANCH   1   2
ATOM      2  C   UNL     1      44.245  80.165  39.287  0.00  0.00    +0.101 C 
BRANCH   2  11
ATOM      3  C   UNL     1      49.566  82.049  42.641  0.00  0.00    +0.000 C 
ATOM      4  C   UNL     1      49.065  83.499  42.603  0.00  0.00    +0.000 C 
ATOM      5  C   UNL     1      47.695  83.368  42.010  0.00  0.00    +0.001 C 
ATOM      6  C   UNL     1      47.679  82.049  41.231  0.00  0.00    +0.017 C 
ATOM      7  C   UNL     1      49.132  81.563  41.284  0.00  0.00    +0.001 C 
ATOM      8  C   UNL     1      46.845  81.016  41.907  0.00  0.00    +0.086 C 
ATOM      9  C   UNL     1      46.083  80.155  40.972  0.00  0.00    +0.231 C 
ATOM     10  O   UNL     1      46.021  78.900  41.075  0.00  0.00    -0.274 OA
ATOM     11  N   UNL     1      45.386  80.783  39.901  0.00  0.00    -0.230 N 
ATOM     12  C   UNL     1      45.894  82.057  39.486  0.00  0.00    +0.231 C 
ATOM     13  O   UNL     1      45.127  82.834  38.857  0.00  0.00    -0.274 OA
ATOM     14  C   UNL     1      47.291  82.365  39.831  0.00  0.00    +0.086 C 
ENDBRANCH   2  11
ENDBRANCH   1   2
BRANCH   1  15
ATOM     15  C   UNL     1      42.707  78.562  40.432  0.00  0.00    +0.019 C 
BRANCH  15  16
ATOM     16  C   UNL     1      41.618  78.147  39.527  0.00  0.00    +0.072 C 
BRANCH  16  17
ATOM     17  N   UNL     1      41.979  77.293  38.447  0.00  0.00    -0.270 NA
ATOM     18  C   UNL     1      41.556  75.929  38.618  0.00  0.00    +0.094 C 
ATOM     19  C   UNL     1      40.462  75.576  37.651  0.00  0.00    +0.111 C 
ATOM     20  N   UNL     1      39.624  76.730  37.487  0.00  0.00    -0.275 N 
ATOM     21  C   UNL     1      40.184  77.909  36.889  0.00  0.00    +0.111 C 
ATOM     22  C   UNL     1      41.697  77.824  37.143  0.00  0.00    +0.094 C 
ATOM     23  C   UNL     1      38.281  76.695  37.908  0.00  0.00    +0.220 A 
ATOM     24  N   UNL     1      37.537  77.832  38.010  0.00  0.00    -0.212 NA
ATOM     25  C   UNL     1      36.253  77.819  38.410  0.00  0.00    +0.103 A 
ATOM     26  C   UNL     1      35.639  76.630  38.736  0.00  0.00    +0.041 A 
ATOM     27  C   UNL     1      36.375  75.483  38.637  0.00  0.00    +0.103 A 
ATOM     28  N   UNL     1      37.638  75.554  38.237  0.00  0.00    -0.212 NA
ENDBRANCH  16  17
ENDBRANCH  15  16
ENDBRANCH   1  15
TORSDOF 5
