REMARK  Name = Busulfan
REMARK  7 active torsions:
REMARK  status: ('A' for Active; 'I' for Inactive)
REMARK    1  A    between atoms: S_2  and  O_5
REMARK    2  A    between atoms: O_5  and  C_6
REMARK    3  A    between atoms: C_6  and  C_7
REMARK    4  A    between atoms: C_7  and  C_8
REMARK    5  A    between atoms: C_8  and  C_9
REMARK    6  A    between atoms: C_9  and  O_10
REMARK    7  A    between atoms: O_10  and  S_11
REMARK                            x       y       z     vdW  Elec       q    Type
REMARK                         _______ _______ _______ _____ _____    ______ ____
ROOT
ATOM      1  C   UNL     1      47.464  80.898  40.682  0.00  0.00    +0.037 C 
ENDROOT
BRANCH   1   2
ATOM      2  C   UNL     1      45.984  80.638  40.907  0.00  0.00    +0.174 C 
BRANCH   2   3
ATOM      3  O   UNL     1      45.521  79.595  40.118  0.00  0.00    -0.224 OA
BRANCH   3   5
ATOM      4  C   UNL     1      43.952  79.001  37.799  0.00  0.00    +0.210 C 
ATOM      5  S   UNL     1      44.407  80.157  39.032  0.00  0.00    +0.096 S 
ATOM      6  O   UNL     1      43.165  80.561  39.802  0.00  0.00    -0.146 OA
ATOM      7  O   UNL     1      44.955  81.400  38.390  0.00  0.00    -0.146 OA
ENDBRANCH   3   5
ENDBRANCH   2   3
ENDBRANCH   1   2
BRANCH   1   8
ATOM      8  C   UNL     1      47.865  81.918  41.758  0.00  0.00    +0.037 C 
BRANCH   8   9
ATOM      9  C   UNL     1      49.335  82.176  41.635  0.00  0.00    +0.174 C 
BRANCH   9  10
ATOM     10  O   UNL     1      49.653  83.296  42.391  0.00  0.00    -0.224 OA
BRANCH  10  11
ATOM     11  S   UNL     1      51.177  83.111  43.040  0.00  0.00    +0.096 S 
ATOM     12  O   UNL     1      51.202  81.819  43.804  0.00  0.00    -0.146 OA
ATOM     13  O   UNL     1      52.221  83.061  41.959  0.00  0.00    -0.146 OA
ATOM     14  C   UNL     1      51.584  84.418  44.143  0.00  0.00    +0.210 C 
ENDBRANCH  10  11
ENDBRANCH   9  10
ENDBRANCH   8   9
ENDBRANCH   1   8
TORSDOF 7
