REMARK  Name = Butacaine
REMARK  12 active torsions:
REMARK  status: ('A' for Active; 'I' for Inactive)
REMARK    1  A    between atoms: C_2  and  C_3
REMARK    2  A    between atoms: C_3  and  C_4
REMARK    3  A    between atoms: C_4  and  N_5
REMARK    4  A    between atoms: N_5  and  C_6
REMARK    5  A    between atoms: N_5  and  C_10
REMARK    6  A    between atoms: C_6  and  C_7
REMARK    7  A    between atoms: C_7  and  C_8
REMARK    8  A    between atoms: C_10  and  C_11
REMARK    9  A    between atoms: C_11  and  C_12
REMARK   10  A    between atoms: C_12  and  O_13
REMARK   11  A    between atoms: O_13  and  C_14
REMARK   12  A    between atoms: C_14  and  C_16
REMARK                            x       y       z     vdW  Elec       q    Type
REMARK                         _______ _______ _______ _____ _____    ______ ____
ROOT
ATOM      1  C   UNL     1      43.389  78.147  39.490  0.00  0.00    +0.065 C 
ENDROOT
BRANCH   1   2
ATOM      2  C   UNL     1      42.186  77.754  38.687  0.00  0.00    +0.076 C 
BRANCH   2   3
ATOM      3  N   UNL     1      41.780  76.435  38.781  0.00  0.00    -0.273 NA
BRANCH   3   4
ATOM      4  C   UNL     1      42.275  75.506  39.679  0.00  0.00    +0.072 C 
BRANCH   4   5
ATOM      5  C   UNL     1      42.092  75.653  41.136  0.00  0.00    +0.017 C 
BRANCH   5   7
ATOM      6  C   UNL     1      42.716  74.747  43.381  0.00  0.00    +0.000 C 
ATOM      7  C   UNL     1      42.791  74.494  41.896  0.00  0.00    +0.001 C 
ENDBRANCH   5   7
ENDBRANCH   4   5
ENDBRANCH   3   4
BRANCH   3   8
ATOM      8  C   UNL     1      40.455  76.148  38.276  0.00  0.00    +0.072 C 
BRANCH   8   9
ATOM      9  C   UNL     1      40.414  75.995  36.787  0.00  0.00    +0.017 C 
BRANCH   9  10
ATOM     10  C   UNL     1      39.007  75.730  36.301  0.00  0.00    +0.001 C 
ATOM     11  C   UNL     1      38.998  75.699  34.778  0.00  0.00    +0.000 C 
ENDBRANCH   9  10
ENDBRANCH   8   9
ENDBRANCH   3   8
ENDBRANCH   2   3
ENDBRANCH   1   2
BRANCH   1  12
ATOM     12  C   UNL     1      43.666  79.646  39.231  0.00  0.00    +0.210 C 
BRANCH  12  13
ATOM     13  O   UNL     1      44.971  79.987  39.692  0.00  0.00    -0.445 OA
BRANCH  13  14
ATOM     14  C   UNL     1      45.367  81.304  39.514  0.00  0.00    +0.341 C 
ATOM     15  O   UNL     1      44.633  82.118  38.856  0.00  0.00    -0.245 OA
BRANCH  14  16
ATOM     16  C   UNL     1      46.621  81.804  40.066  0.00  0.00    +0.076 A 
ATOM     17  C   UNL     1      47.226  81.143  41.107  0.00  0.00    +0.008 A 
ATOM     18  C   UNL     1      48.419  81.608  41.650  0.00  0.00    +0.018 A 
ATOM     19  C   UNL     1      49.035  82.743  41.166  0.00  0.00    +0.089 A 
ATOM     20  C   UNL     1      48.434  83.413  40.122  0.00  0.00    +0.018 A 
ATOM     21  C   UNL     1      47.234  82.935  39.584  0.00  0.00    +0.008 A 
ATOM     22  N   UNL     1      50.260  83.222  41.724  0.00  0.00    -0.128 NA
ENDBRANCH  14  16
ENDBRANCH  13  14
ENDBRANCH  12  13
ENDBRANCH   1  12
TORSDOF 12
