REMARK  Name = Butalbital
REMARK  4 active torsions:
REMARK  status: ('A' for Active; 'I' for Inactive)
REMARK    1  A    between atoms: C_2  and  C_4
REMARK    2  A    between atoms: C_4  and  C_5
REMARK    3  A    between atoms: C_5  and  C_14
REMARK    4  A    between atoms: C_14  and  C_15
REMARK                            x       y       z     vdW  Elec       q    Type
REMARK                         _______ _______ _______ _____ _____    ______ ____
ROOT
ATOM      1  C   UNL     1      47.863  81.367  41.152  0.00  0.00    +0.145 C 
ATOM      2  C   UNL     1      46.782  80.432  40.721  0.00  0.00    +0.257 C 
ATOM      3  O   UNL     1      46.775  79.212  40.932  0.00  0.00    -0.272 OA
ATOM      4  N   UNL     1      45.687  81.016  40.017  0.00  0.00    -0.125 NA
ATOM      5  C   UNL     1      45.895  82.160  39.188  0.00  0.00    +0.352 C 
ATOM      6  O   UNL     1      44.959  82.705  38.550  0.00  0.00    -0.248 OA
ATOM      7  N   UNL     1      47.233  82.651  39.126  0.00  0.00    -0.125 NA
ATOM      8  C   UNL     1      48.287  82.028  39.851  0.00  0.00    +0.257 C 
ATOM      9  O   UNL     1      49.474  82.014  39.466  0.00  0.00    -0.272 OA
ENDROOT
BRANCH   1  10
ATOM     10  C   UNL     1      47.271  82.362  42.069  0.00  0.00    +0.018 C 
BRANCH  10  12
ATOM     11  C   UNL     1      49.337  83.087  43.109  0.00  0.00    +0.000 C 
ATOM     12  C   UNL     1      48.049  83.577  42.406  0.00  0.00    +0.001 C 
ATOM     13  C   UNL     1      47.435  84.564  43.330  0.00  0.00    +0.000 C 
ENDBRANCH  10  12
ENDBRANCH   1  10
BRANCH   1  14
ATOM     14  C   UNL     1      49.056  80.697  41.702  0.00  0.00    +0.044 C 
BRANCH  14  15
ATOM     15  C   UNL     1      49.304  79.421  40.970  0.00  0.00    -0.025 C 
ATOM     16  C   UNL     1      50.515  78.875  40.893  0.00  0.00    -0.005 C 
ENDBRANCH  14  15
ENDBRANCH   1  14
TORSDOF 4
