REMARK  Name = Butabarbital
REMARK  3 active torsions:
REMARK  status: ('A' for Active; 'I' for Inactive)
REMARK    1  A    between atoms: C_2  and  C_3
REMARK    2  A    between atoms: C_3  and  C_5
REMARK    3  A    between atoms: C_5  and  C_14
REMARK                            x       y       z     vdW  Elec       q    Type
REMARK                         _______ _______ _______ _____ _____    ______ ____
ROOT
ATOM      1  C   UNL     1      47.950  82.015  41.353  0.00  0.00    +0.141 C 
ATOM      2  C   UNL     1      48.264  82.632  40.048  0.00  0.00    +0.257 C 
ATOM      3  O   UNL     1      49.434  83.004  39.769  0.00  0.00    -0.272 OA
ATOM      4  N   UNL     1      47.274  82.838  39.045  0.00  0.00    -0.125 NA
ATOM      5  C   UNL     1      45.997  82.203  39.169  0.00  0.00    +0.352 C 
ATOM      6  O   UNL     1      45.123  82.391  38.275  0.00  0.00    -0.248 OA
ATOM      7  N   UNL     1      45.725  81.372  40.290  0.00  0.00    -0.125 NA
ATOM      8  C   UNL     1      46.713  81.175  41.277  0.00  0.00    +0.257 C 
ATOM      9  O   UNL     1      46.545  80.258  42.124  0.00  0.00    -0.272 OA
ENDROOT
BRANCH   1  10
ATOM     10  C   UNL     1      47.789  83.023  42.450  0.00  0.00    +0.017 C 
ATOM     11  C   UNL     1      46.483  83.812  42.278  0.00  0.00    +0.001 C 
BRANCH  10  13
ATOM     12  C   UNL     1      49.187  84.443  43.946  0.00  0.00    +0.000 C 
ATOM     13  C   UNL     1      48.905  84.031  42.493  0.00  0.00    +0.001 C 
ENDBRANCH  10  13
ENDBRANCH   1  10
BRANCH   1  14
ATOM     14  C   UNL     1      49.112  81.112  41.712  0.00  0.00    +0.018 C 
ATOM     15  C   UNL     1      49.289  80.051  40.647  0.00  0.00    +0.001 C 
ENDBRANCH   1  14
TORSDOF 3
