REMARK  Name = Butethal
REMARK  4 active torsions:
REMARK  status: ('A' for Active; 'I' for Inactive)
REMARK    1  A    between atoms: C_2  and  C_3
REMARK    2  A    between atoms: C_3  and  C_4
REMARK    3  A    between atoms: C_4  and  C_5
REMARK    4  A    between atoms: C_5  and  C_14
REMARK                            x       y       z     vdW  Elec       q    Type
REMARK                         _______ _______ _______ _____ _____    ______ ____
ROOT
ATOM      1  C   UNL     1      47.719  81.617  41.235  0.00  0.00    +0.141 C 
ATOM      2  C   UNL     1      48.070  82.454  40.065  0.00  0.00    +0.257 C 
ATOM      3  O   UNL     1      49.191  83.024  40.057  0.00  0.00    -0.272 OA
ATOM      4  N   UNL     1      47.207  82.646  38.954  0.00  0.00    -0.125 NA
ATOM      5  C   UNL     1      45.916  82.055  38.954  0.00  0.00    +0.352 C 
ATOM      6  O   UNL     1      45.141  82.214  37.982  0.00  0.00    -0.248 OA
ATOM      7  N   UNL     1      45.482  81.283  40.041  0.00  0.00    -0.125 NA
ATOM      8  C   UNL     1      46.331  81.092  41.139  0.00  0.00    +0.257 C 
ATOM      9  O   UNL     1      45.917  80.430  42.137  0.00  0.00    -0.272 OA
ENDROOT
BRANCH   1  10
ATOM     10  C   UNL     1      48.646  80.446  41.288  0.00  0.00    +0.018 C 
ATOM     11  C   UNL     1      49.184  80.014  39.958  0.00  0.00    +0.001 C 
ENDBRANCH   1  10
BRANCH   1  12
ATOM     12  C   UNL     1      47.786  82.415  42.526  0.00  0.00    +0.018 C 
BRANCH  12  13
ATOM     13  C   UNL     1      47.038  83.710  42.415  0.00  0.00    +0.001 C 
BRANCH  13  15
ATOM     14  C   UNL     1      48.645  85.212  43.607  0.00  0.00    +0.000 C 
ATOM     15  C   UNL     1      47.334  84.500  43.692  0.00  0.00    +0.000 C 
ENDBRANCH  13  15
ENDBRANCH  12  13
ENDBRANCH   1  12
TORSDOF 4
