REMARK  Name = Butizide
REMARK  3 active torsions:
REMARK  status: ('A' for Active; 'I' for Inactive)
REMARK    1  A    between atoms: C_2  and  C_4
REMARK    2  A    between atoms: C_4  and  C_5
REMARK    3  A    between atoms: C_10  and  S_17
REMARK                            x       y       z     vdW  Elec       q    Type
REMARK                         _______ _______ _______ _____ _____    ______ ____
ROOT
ATOM      1  C   UNL     1      47.263  81.922  41.561  0.00  0.00    +0.189 C 
ATOM      2  N   UNL     1      47.066  80.522  41.730  0.00  0.00    -0.218 NA
ATOM      3  C   UNL     1      45.962  79.897  41.081  0.00  0.00    +0.086 A 
ATOM      4  C   UNL     1      45.431  78.757  41.658  0.00  0.00    +0.030 A 
ATOM      5  C   UNL     1      44.357  78.119  41.044  0.00  0.00    +0.078 A 
ATOM      6  C   UNL     1      43.825  78.617  39.870  0.00  0.00    +0.137 A 
ATOM      7  C   UNL     1      44.391  79.756  39.334  0.00  0.00    +0.042 A 
ATOM      8  C   UNL     1      45.444  80.413  39.901  0.00  0.00    +0.140 A 
ATOM      9  S   UNL     1      46.188  81.851  39.244  0.00  0.00    +0.080 S 
ATOM     10  O   UNL     1      45.317  83.052  39.521  0.00  0.00    -0.152 OA
ATOM     11  O   UNL     1      46.478  81.730  37.786  0.00  0.00    -0.152 OA
ATOM     12  N   UNL     1      47.667  82.096  40.150  0.00  0.00    -0.057 NA
ATOM     13 CL   UNL     1      43.653  76.674  41.740  0.00  0.00    -0.081 Cl
ENDROOT
BRANCH   6  14
ATOM     14  S   UNL     1      42.472  77.813  39.097  0.00  0.00    +0.094 S 
ATOM     15  O   UNL     1      41.272  77.925  39.986  0.00  0.00    -0.150 OA
ATOM     16  O   UNL     1      42.798  76.355  38.964  0.00  0.00    -0.150 OA
ATOM     17  N   UNL     1      42.203  78.493  37.547  0.00  0.00    +0.039 NA
ENDBRANCH   6  14
BRANCH   1  18
ATOM     18  C   UNL     1      48.144  82.619  42.513  0.00  0.00    +0.041 C 
BRANCH  18  20
ATOM     19  C   UNL     1      50.392  82.975  43.530  0.00  0.00    +0.000 C 
ATOM     20  C   UNL     1      49.599  82.340  42.375  0.00  0.00    +0.003 C 
ATOM     21  C   UNL     1      50.202  82.748  41.069  0.00  0.00    +0.000 C 
ENDBRANCH  18  20
ENDBRANCH   1  18
TORSDOF 3
