REMARK  Name = Butoconazole
REMARK  7 active torsions:
REMARK  status: ('A' for Active; 'I' for Inactive)
REMARK    1  A    between atoms: C_4  and  S_8
REMARK    2  A    between atoms: S_8  and  C_9
REMARK    3  A    between atoms: C_9  and  C_10
REMARK    4  A    between atoms: C_9  and  C_19
REMARK    5  A    between atoms: C_10  and  C_11
REMARK    6  A    between atoms: C_11  and  C_12
REMARK    7  A    between atoms: C_19  and  N_20
REMARK                            x       y       z     vdW  Elec       q    Type
REMARK                         _______ _______ _______ _____ _____    ______ ____
ROOT
ATOM      1  C   UNL     1      47.573  80.553  41.406  0.00  0.00    +0.075 C 
ENDROOT
BRANCH   1   2
ATOM      2  S   UNL     1      48.310  80.890  43.005  0.00  0.00    -0.111 S 
BRANCH   2   6
ATOM      3  C   UNL     1      50.865  84.686  43.076  0.00  0.00    +0.002 A 
ATOM      4  C   UNL     1      51.425  83.459  42.851  0.00  0.00    +0.012 A 
ATOM      5  C   UNL     1      50.622  82.324  42.835  0.00  0.00    +0.064 A 
ATOM      6  C   UNL     1      49.261  82.389  43.041  0.00  0.00    +0.046 A 
ATOM      7  C   UNL     1      48.709  83.630  43.267  0.00  0.00    +0.064 A 
ATOM      8  C   UNL     1      49.500  84.783  43.287  0.00  0.00    +0.012 A 
ATOM      9 CL   UNL     1      47.001  83.749  43.530  0.00  0.00    -0.082 Cl
ATOM     10 CL   UNL     1      51.369  80.771  42.543  0.00  0.00    -0.082 Cl
ENDBRANCH   2   6
ENDBRANCH   1   2
BRANCH   1  11
ATOM     11  C   UNL     1      47.331  79.059  41.337  0.00  0.00    +0.018 C 
BRANCH  11  12
ATOM     12  C   UNL     1      46.094  78.782  42.165  0.00  0.00    +0.027 C 
BRANCH  12  13
ATOM     13  C   UNL     1      44.998  78.191  41.395  0.00  0.00    -0.022 A 
ATOM     14  C   UNL     1      44.455  76.992  41.840  0.00  0.00    -0.003 A 
ATOM     15  C   UNL     1      43.425  76.356  41.190  0.00  0.00    +0.011 A 
ATOM     16  C   UNL     1      42.915  76.933  40.055  0.00  0.00    +0.058 A 
ATOM     17  C   UNL     1      43.434  78.121  39.591  0.00  0.00    +0.011 A 
ATOM     18  C   UNL     1      44.470  78.750  40.255  0.00  0.00    -0.003 A 
ATOM     19 CL   UNL     1      41.600  76.126  39.221  0.00  0.00    -0.082 Cl
ENDBRANCH  12  13
ENDBRANCH  11  12
ENDBRANCH   1  11
BRANCH   1  20
ATOM     20  C   UNL     1      46.284  81.264  41.173  0.00  0.00    +0.119 C 
BRANCH  20  21
ATOM     21  N   UNL     1      46.269  81.912  39.878  0.00  0.00    -0.307 N 
ATOM     22  C   UNL     1      47.200  82.810  39.444  0.00  0.00    +0.098 A 
ATOM     23  C   UNL     1      46.880  83.229  38.168  0.00  0.00    +0.119 A 
ATOM     24  N   UNL     1      45.758  82.581  37.840  0.00  0.00    -0.222 NA
ATOM     25  C   UNL     1      45.407  81.807  38.857  0.00  0.00    +0.179 A 
ENDBRANCH  20  21
ENDBRANCH   1  20
TORSDOF 7
