REMARK  Name = Butylscopolamine
REMARK  8 active torsions:
REMARK  status: ('A' for Active; 'I' for Inactive)
REMARK    1  A    between atoms: C_2  and  C_3
REMARK    2  A    between atoms: C_3  and  C_4
REMARK    3  A    between atoms: C_4  and  N_5
REMARK    4  A    between atoms: C_8  and  O_14
REMARK    5  A    between atoms: O_14  and  C_15
REMARK    6  A    between atoms: C_15  and  C_17
REMARK    7  A    between atoms: C_17  and  C_18
REMARK    8  A    between atoms: C_17  and  C_20
REMARK                            x       y       z     vdW  Elec       q    Type
REMARK                         _______ _______ _______ _____ _____    ______ ____
ROOT
ATOM      1  N   UNL     1      44.818  79.596  39.855  0.00  0.00    +0.395 N 
ATOM      2  C   UNL     1      44.877  80.892  40.499  0.00  0.00    -0.020 C 
ATOM      3  C   UNL     1      45.904  80.907  41.586  0.00  0.00    +0.026 C 
ATOM      4  C   UNL     1      47.271  80.732  40.933  0.00  0.00    +0.165 C 
ATOM      5  C   UNL     1      47.258  79.449  40.148  0.00  0.00    +0.026 C 
ATOM      6  C   UNL     1      46.083  79.524  39.189  0.00  0.00    -0.020 C 
ATOM      7  C   UNL     1      46.195  80.901  38.521  0.00  0.00    +0.122 C 
ATOM      8  C   UNL     1      45.390  81.792  39.388  0.00  0.00    +0.122 C 
ATOM      9  O   UNL     1      45.062  81.532  38.085  0.00  0.00    -0.358 OA
ATOM     10  C   UNL     1      43.779  79.553  38.861  0.00  0.00    -0.095 C 
ENDROOT
BRANCH   1  11
ATOM     11  C   UNL     1      44.592  78.524  40.786  0.00  0.00    -0.073 C 
BRANCH  11  12
ATOM     12  C   UNL     1      44.441  77.220  40.084  0.00  0.00    -0.022 C 
BRANCH  12  14
ATOM     13  C   UNL     1      42.328  75.873  40.088  0.00  0.00    -0.000 C 
ATOM     14  C   UNL     1      43.509  76.316  40.894  0.00  0.00    -0.002 C 
ENDBRANCH  12  14
ENDBRANCH  11  12
ENDBRANCH   1  11
BRANCH   4  15
ATOM     15  O   UNL     1      48.311  80.767  41.889  0.00  0.00    -0.452 OA
BRANCH  15  16
ATOM     16  C   UNL     1      49.441  81.563  41.752  0.00  0.00    +0.323 C 
ATOM     17  O   UNL     1      49.826  81.799  40.578  0.00  0.00    -0.250 OA
BRANCH  16  18
ATOM     18  C   UNL     1      50.156  82.108  42.942  0.00  0.00    +0.154 C 
BRANCH  18  19
ATOM     19  C   UNL     1      49.682  83.433  43.329  0.00  0.00    -0.009 A 
ATOM     20  C   UNL     1      48.329  83.752  43.229  0.00  0.00    -0.004 A 
ATOM     21  C   UNL     1      47.915  85.007  43.601  0.00  0.00    -0.000 A 
ATOM     22  C   UNL     1      48.793  85.963  44.070  0.00  0.00    -0.000 A 
ATOM     23  C   UNL     1      50.130  85.645  44.168  0.00  0.00    -0.000 A 
ATOM     24  C   UNL     1      50.562  84.387  43.798  0.00  0.00    -0.004 A 
ENDBRANCH  18  19
BRANCH  18  25
ATOM     25  C   UNL     1      51.642  82.055  42.671  0.00  0.00    +0.198 C 
ATOM     26  O   UNL     1      52.150  80.778  42.621  0.00  0.00    -0.219 OA
ENDBRANCH  18  25
ENDBRANCH  16  18
ENDBRANCH  15  16
ENDBRANCH   4  15
TORSDOF 8
