REMARK  Name = Cabergoline
REMARK  8 active torsions:
REMARK  status: ('A' for Active; 'I' for Inactive)
REMARK    1  A    between atoms: C_2  and  N_3
REMARK    2  A    between atoms: N_6  and  C_7
REMARK    3  A    between atoms: C_7  and  C_8
REMARK    4  A    between atoms: C_8  and  C_9
REMARK    5  A    between atoms: C_9  and  N_10
REMARK    6  A    between atoms: C_13  and  C_15
REMARK    7  A    between atoms: N_29  and  C_31
REMARK    8  A    between atoms: C_31  and  C_32
REMARK                            x       y       z     vdW  Elec       q    Type
REMARK                         _______ _______ _______ _____ _____    ______ ____
ROOT
ATOM      1  C   UNL     1      42.245  78.311  39.330  0.00  0.00    +0.093 C 
ATOM      2  C   UNL     1      43.012  79.596  39.136  0.00  0.00    +0.016 C 
ATOM      3  C   UNL     1      44.458  79.419  39.424  0.00  0.00    +0.038 C 
ATOM      4  C   UNL     1      44.736  78.754  40.788  0.00  0.00    +0.066 C 
ATOM      5  C   UNL     1      46.139  78.256  40.670  0.00  0.00    +0.044 C 
ATOM      6  C   UNL     1      47.004  79.497  40.651  0.00  0.00    -0.001 A 
ATOM      7  C   UNL     1      48.232  79.862  41.124  0.00  0.00    +0.095 A 
ATOM      8  N   UNL     1      48.450  81.165  40.775  0.00  0.00    -0.244 NA
ATOM      9  C   UNL     1      47.385  81.635  40.089  0.00  0.00    +0.081 A 
ATOM     10  C   UNL     1      47.017  82.825  39.495  0.00  0.00    +0.019 A 
ATOM     11  C   UNL     1      45.786  82.918  38.860  0.00  0.00    +0.001 A 
ATOM     12  C   UNL     1      44.896  81.839  38.801  0.00  0.00    -0.004 A 
ATOM     13  C   UNL     1      45.265  80.647  39.397  0.00  0.00    -0.020 A 
ATOM     14  C   UNL     1      46.500  80.610  40.014  0.00  0.00    +0.011 A 
ATOM     15  N   UNL     1      43.720  77.866  41.110  0.00  0.00    -0.269 NA
ATOM     16  C   UNL     1      43.129  77.228  39.974  0.00  0.00    +0.081 C 
ENDROOT
BRANCH   1  21
ATOM     17  N   UNL     1      38.065  78.023  37.166  0.00  0.00    -0.188 NA
ATOM     18  C   UNL     1      39.232  78.146  37.922  0.00  0.00    +0.329 C 
ATOM     19  O   UNL     1      39.221  79.113  38.776  0.00  0.00    -0.250 OA
ATOM     20  N   UNL     1      40.399  77.316  37.830  0.00  0.00    -0.213 N 
ATOM     21  C   UNL     1      41.697  77.757  38.092  0.00  0.00    +0.233 C 
ATOM     22  O   UNL     1      42.542  77.683  37.129  0.00  0.00    -0.274 OA
BRANCH  17  24
ATOM     23  C   UNL     1      35.812  78.675  36.419  0.00  0.00    +0.025 C 
ATOM     24  C   UNL     1      36.917  78.893  37.414  0.00  0.00    +0.117 C 
ENDBRANCH  17  24
BRANCH  20  25
ATOM     25  C   UNL     1      40.090  75.902  37.557  0.00  0.00    +0.104 C 
BRANCH  25  26
ATOM     26  C   UNL     1      39.568  75.665  36.174  0.00  0.00    +0.039 C 
BRANCH  26  27
ATOM     27  C   UNL     1      39.057  74.333  35.820  0.00  0.00    +0.074 C 
BRANCH  27  28
ATOM     28  N   UNL     1      38.522  74.144  34.517  0.00  0.00    -0.270 NA
ATOM     29  C   UNL     1      39.431  73.713  33.508  0.00  0.00    +0.090 C 
ATOM     30  C   UNL     1      37.374  73.248  34.654  0.00  0.00    +0.090 C 
ENDBRANCH  27  28
ENDBRANCH  26  27
ENDBRANCH  25  26
ENDBRANCH  20  25
ENDBRANCH   1  21
BRANCH  15  31
ATOM     31  C   UNL     1      43.596  77.237  42.341  0.00  0.00    +0.099 C 
BRANCH  31  32
ATOM     32  C   UNL     1      44.113  75.850  42.432  0.00  0.00    -0.009 C 
ATOM     33  C   UNL     1      44.913  75.389  41.487  0.00  0.00    -0.003 C 
ENDBRANCH  31  32
ENDBRANCH  15  31
TORSDOF 8
