REMARK  Name = Cabozantinib
REMARK  8 active torsions:
REMARK  status: ('A' for Active; 'I' for Inactive)
REMARK    1  A    between atoms: O_2  and  C_3
REMARK    2  A    between atoms: C_6  and  O_15
REMARK    3  A    between atoms: C_12  and  O_13
REMARK    4  A    between atoms: O_15  and  C_16
REMARK    5  A    between atoms: C_19  and  N_22
REMARK    6  A    between atoms: C_23  and  C_25
REMARK    7  A    between atoms: C_25  and  C_28
REMARK    8  A    between atoms: N_30  and  C_31
REMARK                            x       y       z     vdW  Elec       q    Type
REMARK                         _______ _______ _______ _____ _____    ______ ____
ROOT
ATOM      1  C   UNL     1      47.748  81.093  42.321  0.00  0.00    +0.145 A 
ATOM      2  C   UNL     1      47.547  82.388  42.751  0.00  0.00    +0.039 A 
ATOM      3  C   UNL     1      48.629  83.143  43.244  0.00  0.00    +0.020 A 
ATOM      4  C   UNL     1      49.885  82.587  43.293  0.00  0.00    +0.074 A 
ATOM      5  C   UNL     1      50.081  81.300  42.865  0.00  0.00    +0.020 A 
ATOM      6  C   UNL     1      49.015  80.536  42.373  0.00  0.00    +0.039 A 
ENDROOT
BRANCH   4   7
ATOM      7  N   UNL     1      50.959  83.391  43.794  0.00  0.00    -0.179 NA
ATOM      8  C   UNL     1      52.172  83.546  43.125  0.00  0.00    +0.253 C 
ATOM      9  O   UNL     1      52.073  83.320  41.840  0.00  0.00    -0.273 OA
BRANCH   8  10
ATOM     10  C   UNL     1      53.509  83.908  43.623  0.00  0.00    +0.141 C 
ATOM     11  C   UNL     1      54.592  83.656  42.570  0.00  0.00    +0.018 C 
ATOM     12  C   UNL     1      54.198  85.049  42.778  0.00  0.00    +0.018 C 
BRANCH  10  13
ATOM     13  C   UNL     1      53.931  83.931  45.015  0.00  0.00    +0.253 C 
ATOM     14  O   UNL     1      52.983  83.658  45.876  0.00  0.00    -0.273 OA
ATOM     15  N   UNL     1      55.154  84.183  45.628  0.00  0.00    -0.179 NA
BRANCH  15  16
ATOM     16  C   UNL     1      55.396  84.011  47.021  0.00  0.00    +0.074 A 
ATOM     17  C   UNL     1      56.684  84.106  47.480  0.00  0.00    +0.019 A 
ATOM     18  C   UNL     1      56.994  83.950  48.826  0.00  0.00    +0.031 A 
ATOM     19  C   UNL     1      55.978  83.692  49.724  0.00  0.00    +0.140 A 
ATOM     20  C   UNL     1      54.693  83.597  49.271  0.00  0.00    +0.031 A 
ATOM     21  C   UNL     1      54.384  83.756  47.908  0.00  0.00    +0.019 A 
ATOM     22  F   UNL     1      56.325  83.544  51.037  0.00  0.00    -0.204 F 
ENDBRANCH  15  16
ENDBRANCH  10  13
ENDBRANCH   8  10
ENDBRANCH   4   7
BRANCH   1  23
ATOM     23  O   UNL     1      46.645  80.390  41.839  0.00  0.00    -0.453 OA
BRANCH  23  27
ATOM     24  C   UNL     1      43.349  78.377  40.165  0.00  0.00    +0.173 A 
ATOM     25  C   UNL     1      44.444  79.038  40.727  0.00  0.00    +0.045 A 
ATOM     26  C   UNL     1      45.136  80.001  40.025  0.00  0.00    +0.055 A 
ATOM     27  C   UNL     1      46.208  80.675  40.558  0.00  0.00    +0.148 A 
ATOM     28  C   UNL     1      46.861  81.650  39.812  0.00  0.00    +0.058 A 
ATOM     29  C   UNL     1      46.448  81.954  38.532  0.00  0.00    +0.102 A 
ATOM     30  N   UNL     1      45.399  81.291  38.011  0.00  0.00    -0.244 NA
ATOM     31  C   UNL     1      44.752  80.341  38.723  0.00  0.00    +0.087 A 
ATOM     32  C   UNL     1      43.665  79.665  38.203  0.00  0.00    +0.059 A 
ATOM     33  C   UNL     1      42.958  78.698  38.886  0.00  0.00    +0.174 A 
BRANCH  24  35
ATOM     34  C   UNL     1      42.972  76.901  42.109  0.00  0.00    +0.253 C 
ATOM     35  O   UNL     1      42.634  77.406  40.842  0.00  0.00    -0.468 OA
ENDBRANCH  24  35
BRANCH  33  36
ATOM     36  O   UNL     1      41.866  78.065  38.273  0.00  0.00    -0.468 OA
ATOM     37  C   UNL     1      41.319  78.548  37.062  0.00  0.00    +0.253 C 
ENDBRANCH  33  36
ENDBRANCH  23  27
ENDBRANCH   1  23
TORSDOF 8
