REMARK  Name = Cadralazine
REMARK  6 active torsions:
REMARK  status: ('A' for Active; 'I' for Inactive)
REMARK    1  A    between atoms: C_2  and  N_3
REMARK    2  A    between atoms: N_3  and  C_4
REMARK    3  A    between atoms: C_4  and  C_5
REMARK    4  A    between atoms: N_14  and  N_15
REMARK    5  A    between atoms: C_16  and  O_18
REMARK    6  A    between atoms: O_18  and  C_19
REMARK                            x       y       z     vdW  Elec       q    Type
REMARK                         _______ _______ _______ _____ _____    ______ ____
ROOT
ATOM      1  N   UNL     1      49.043  83.359  42.484  0.00  0.00    -0.289 N 
ATOM      2  C   UNL     1      48.146  82.924  41.476  0.00  0.00    +0.154 A 
ATOM      3  N   UNL     1      47.411  81.819  41.721  0.00  0.00    -0.132 NA
ATOM      4  N   UNL     1      46.545  81.331  40.852  0.00  0.00    -0.128 NA
ATOM      5  C   UNL     1      46.337  81.913  39.650  0.00  0.00    +0.191 A 
ATOM      6  C   UNL     1      47.053  83.039  39.343  0.00  0.00    +0.042 A 
ATOM      7  C   UNL     1      47.948  83.526  40.265  0.00  0.00    +0.039 A 
ATOM      8  N   UNL     1      45.401  81.358  38.719  0.00  0.00    -0.101 NA
ENDROOT
BRANCH   8   9
ATOM      9  N   UNL     1      44.699  80.222  39.120  0.00  0.00    -0.052 NA
ATOM     10  C   UNL     1      43.706  79.606  38.314  0.00  0.00    +0.441 C 
ATOM     11  O   UNL     1      43.275  80.162  37.277  0.00  0.00    -0.223 OA
BRANCH  10  12
ATOM     12  O   UNL     1      43.193  78.371  38.660  0.00  0.00    -0.432 OA
BRANCH  12  13
ATOM     13  C   UNL     1      42.231  77.653  37.942  0.00  0.00    +0.210 C 
ATOM     14  C   UNL     1      42.010  76.251  38.468  0.00  0.00    +0.051 C 
ENDBRANCH  12  13
ENDBRANCH  10  12
ENDBRANCH   8   9
BRANCH   1  16
ATOM     15  C   UNL     1      47.990  85.523  43.073  0.00  0.00    +0.023 C 
ATOM     16  C   UNL     1      48.542  84.217  43.530  0.00  0.00    +0.092 C 
ENDBRANCH   1  16
BRANCH   1  17
ATOM     17  C   UNL     1      50.408  82.900  42.405  0.00  0.00    +0.125 C 
BRANCH  17  18
ATOM     18  C   UNL     1      51.416  83.981  42.136  0.00  0.00    +0.172 C 
ATOM     19  C   UNL     1      52.521  83.374  41.257  0.00  0.00    +0.037 C 
ATOM     20  O   UNL     1      52.082  84.268  43.352  0.00  0.00    -0.221 OA
ENDBRANCH  17  18
ENDBRANCH   1  17
TORSDOF 6
