REMARK  Name = Caffeine
REMARK  0 active torsions:
REMARK  status: ('A' for Active; 'I' for Inactive)
REMARK                            x       y       z     vdW  Elec       q    Type
REMARK                         _______ _______ _______ _____ _____    ______ ____
ROOT
ATOM      1  C   UNL     1      47.837  82.575  40.483  0.00  0.00    +0.132 C 
ATOM      2  N   UNL     1      46.721  82.052  39.701  0.00  0.00    -0.302 N 
ATOM      3  C   UNL     1      46.213  82.615  38.577  0.00  0.00    +0.180 A 
ATOM      4  N   UNL     1      45.200  81.830  38.164  0.00  0.00    -0.206 NA
ATOM      5  C   UNL     1      45.063  80.786  39.009  0.00  0.00    +0.170 A 
ATOM      6  C   UNL     1      46.033  80.930  39.986  0.00  0.00    +0.153 A 
ATOM      7  C   UNL     1      46.154  79.998  41.020  0.00  0.00    +0.283 A 
ATOM      8  O   UNL     1      47.048  80.186  41.868  0.00  0.00    -0.265 OA
ATOM      9  N   UNL     1      45.304  78.969  41.030  0.00  0.00    -0.245 N 
ATOM     10  C   UNL     1      44.371  78.852  40.068  0.00  0.00    +0.335 A 
ATOM     11  O   UNL     1      43.597  77.846  40.145  0.00  0.00    -0.246 OA
ATOM     12  N   UNL     1      44.230  79.731  39.063  0.00  0.00    -0.263 N 
ATOM     13  C   UNL     1      43.216  79.571  38.050  0.00  0.00    +0.137 C 
ATOM     14  C   UNL     1      45.417  77.995  42.095  0.00  0.00    +0.138 C 
ENDROOT
TORSDOF 0
