REMARK  Name = Calcidiol
REMARK  6 active torsions:
REMARK  status: ('A' for Active; 'I' for Inactive)
REMARK    1  A    between atoms: C_2  and  C_3
REMARK    2  A    between atoms: C_2  and  C_10
REMARK    3  A    between atoms: C_3  and  C_4
REMARK    4  A    between atoms: C_4  and  C_5
REMARK    5  A    between atoms: C_5  and  C_6
REMARK    6  A    between atoms: C_19  and  C_20
REMARK                            x       y       z     vdW  Elec       q    Type
REMARK                         _______ _______ _______ _____ _____    ______ ____
ROOT
ATOM      1  C   UNL     1      44.143  78.688  40.439  0.00  0.00    +0.000 C 
ATOM      2  C   UNL     1      44.243  78.857  41.942  0.00  0.00    +0.000 C 
ATOM      3  C   UNL     1      45.229  80.019  42.179  0.00  0.00    +0.004 C 
ATOM      4  C   UNL     1      45.970  80.033  40.917  0.00  0.00    +0.018 C 
ATOM      5  C   UNL     1      44.797  79.901  39.920  0.00  0.00    +0.003 C 
ATOM      6  C   UNL     1      45.409  79.901  38.584  0.00  0.00    +0.001 C 
ATOM      7  C   UNL     1      45.784  81.350  38.225  0.00  0.00    +0.004 C 
ATOM      8  C   UNL     1      46.351  82.093  39.383  0.00  0.00    +0.022 C 
ATOM      9  C   UNL     1      46.755  81.174  40.510  0.00  0.00    -0.045 C 
ATOM     10  C   UNL     1      47.912  81.440  41.081  0.00  0.00    -0.009 C 
ATOM     11  C   UNL     1      43.836  81.044  40.148  0.00  0.00    +0.000 C 
ENDROOT
BRANCH  10  12
ATOM     12  C   UNL     1      48.154  81.951  42.398  0.00  0.00    -0.005 C 
ATOM     13  C   UNL     1      49.225  82.671  42.668  0.00  0.00    -0.024 C 
ATOM     14  C   UNL     1      50.621  82.198  42.409  0.00  0.00    +0.059 C 
ATOM     15  C   UNL     1      51.637  82.968  43.211  0.00  0.00    +0.157 C 
ATOM     16  C   UNL     1      51.561  84.445  43.070  0.00  0.00    +0.038 C 
ATOM     17  C   UNL     1      50.187  84.984  42.883  0.00  0.00    +0.029 C 
ATOM     18  C   UNL     1      49.111  84.017  43.251  0.00  0.00    -0.026 C 
ATOM     19  C   UNL     1      48.114  84.316  44.034  0.00  0.00    -0.005 C 
ATOM     20  O   UNL     1      52.897  82.535  42.802  0.00  0.00    -0.223 OA
ENDBRANCH  10  12
BRANCH   1  22
ATOM     21  C   UNL     1      46.008  77.152  39.704  0.00  0.00    +0.000 C 
ATOM     22  C   UNL     1      44.566  77.370  40.042  0.00  0.00    +0.000 C 
BRANCH  22  23
ATOM     23  C   UNL     1      43.794  76.954  38.762  0.00  0.00    +0.000 C 
BRANCH  23  24
ATOM     24  C   UNL     1      42.403  76.560  39.038  0.00  0.00    +0.003 C 
BRANCH  24  25
ATOM     25  C   UNL     1      41.452  76.852  37.931  0.00  0.00    +0.030 C 
BRANCH  25  26
ATOM     26  C   UNL     1      40.047  76.394  38.011  0.00  0.00    +0.127 C 
ATOM     27  C   UNL     1      39.157  77.048  38.990  0.00  0.00    +0.033 C 
ATOM     28  C   UNL     1      39.405  76.508  36.597  0.00  0.00    +0.033 C 
ATOM     29  O   UNL     1      40.090  75.017  38.326  0.00  0.00    -0.226 OA
ENDBRANCH  25  26
ENDBRANCH  24  25
ENDBRANCH  23  24
ENDBRANCH  22  23
ENDBRANCH   1  22
TORSDOF 6
