REMARK  Name = Canagliflozin
REMARK  5 active torsions:
REMARK  status: ('A' for Active; 'I' for Inactive)
REMARK    1  A    between atoms: C_3  and  C_19
REMARK    2  A    between atoms: C_5  and  C_8
REMARK    3  A    between atoms: C_12  and  C_14
REMARK    4  A    between atoms: C_19  and  C_20
REMARK    5  A    between atoms: C_23  and  C_25
REMARK                            x       y       z     vdW  Elec       q    Type
REMARK                         _______ _______ _______ _____ _____    ______ ____
ROOT
ATOM      1  C   UNL     1      46.335  79.452  40.627  0.00  0.00    +0.031 C 
ATOM      2  C   UNL     1      45.117  78.799  40.102  0.00  0.00    -0.025 A 
ATOM      3  C   UNL     1      44.241  79.351  39.217  0.00  0.00    -0.021 A 
ATOM      4  C   UNL     1      43.130  78.607  38.797  0.00  0.00    -0.006 A 
ATOM      5  C   UNL     1      42.890  77.329  39.250  0.00  0.00    +0.007 A 
ATOM      6  C   UNL     1      43.765  76.768  40.140  0.00  0.00    -0.002 A 
ATOM      7  C   UNL     1      44.876  77.509  40.560  0.00  0.00    -0.005 A 
ENDROOT
BRANCH   5   8
ATOM      8  C   UNL     1      41.682  76.563  38.775  0.00  0.00    +0.170 C 
ATOM      9  C   UNL     1      41.449  76.808  37.306  0.00  0.00    +0.216 C 
ATOM     10  C   UNL     1      40.064  76.382  36.897  0.00  0.00    +0.218 C 
ATOM     11  C   UNL     1      39.027  76.707  37.934  0.00  0.00    +0.214 C 
ATOM     12  C   UNL     1      39.440  76.390  39.330  0.00  0.00    +0.181 C 
ATOM     13  O   UNL     1      40.659  76.933  39.597  0.00  0.00    -0.346 OA
ATOM     14  O   UNL     1      38.748  78.067  37.842  0.00  0.00    -0.218 OA
ATOM     15  O   UNL     1      39.697  77.054  35.725  0.00  0.00    -0.217 OA
ATOM     16  O   UNL     1      42.355  76.023  36.596  0.00  0.00    -0.217 OA
BRANCH  12  17
ATOM     17  C   UNL     1      39.296  74.924  39.670  0.00  0.00    +0.214 C 
ATOM     18  O   UNL     1      40.032  74.511  40.749  0.00  0.00    -0.218 OA
ENDBRANCH  12  17
ENDBRANCH   5   8
BRANCH   3  19
ATOM     19  C   UNL     1      44.469  80.727  38.719  0.00  0.00    +0.059 C 
BRANCH  19  20
ATOM     20  C   UNL     1      45.658  81.324  39.435  0.00  0.00    +0.012 A 
ATOM     21  C   UNL     1      46.931  81.483  38.944  0.00  0.00    +0.003 A 
ATOM     22  C   UNL     1      47.840  82.028  39.752  0.00  0.00    +0.007 A 
ATOM     23  C   UNL     1      47.445  82.391  41.009  0.00  0.00    +0.029 A 
ATOM     24  S   UNL     1      45.800  81.951  41.015  0.00  0.00    -0.091 S 
BRANCH  23  25
ATOM     25  C   UNL     1      48.225  83.001  42.082  0.00  0.00    +0.006 A 
ATOM     26  C   UNL     1      47.658  83.769  43.072  0.00  0.00    +0.003 A 
ATOM     27  C   UNL     1      48.426  84.341  44.085  0.00  0.00    +0.030 A 
ATOM     28  C   UNL     1      49.790  84.156  44.133  0.00  0.00    +0.140 A 
ATOM     29  C   UNL     1      50.363  83.386  43.144  0.00  0.00    +0.030 A 
ATOM     30  C   UNL     1      49.591  82.820  42.137  0.00  0.00    +0.003 A 
ATOM     31  F   UNL     1      50.553  84.715  45.126  0.00  0.00    -0.204 F 
ENDBRANCH  23  25
ENDBRANCH  19  20
ENDBRANCH   3  19
TORSDOF 5
