REMARK  Name = Candicidin
REMARK  10 active torsions:
REMARK  status: ('A' for Active; 'I' for Inactive)
REMARK    1  A    between atoms: C_17  and  O_69
REMARK    2  A    between atoms: C_20  and  C_65
REMARK    3  A    between atoms: C_43  and  C_44
REMARK    4  A    between atoms: C_44  and  C_46
REMARK    5  A    between atoms: C_46  and  C_47
REMARK    6  A    between atoms: C_47  and  C_49
REMARK    7  A    between atoms: C_49  and  C_50
REMARK    8  A    between atoms: C_50  and  C_51
REMARK    9  A    between atoms: C_51  and  C_53
REMARK   10  A    between atoms: O_69  and  C_70
REMARK                            x       y       z     vdW  Elec       q    Type
REMARK                         _______ _______ _______ _____ _____    ______ ____
ROOT
ATOM      1  C   UNL     1      44.978  76.733  43.892  0.00  0.00    +0.008 C 
ATOM      2  C   UNL     1      45.096  75.203  43.779  0.00  0.00    +0.062 C 
ATOM      3  C   UNL     1      45.850  74.838  42.553  0.00  0.00    -0.023 C 
ATOM      4  C   UNL     1      46.862  73.976  42.526  0.00  0.00    -0.004 C 
ATOM      5  C   UNL     1      47.389  73.263  43.676  0.00  0.00    -0.000 C 
ATOM      6  C   UNL     1      48.010  73.734  44.731  0.00  0.00    -0.000 C 
ATOM      7  C   UNL     1      48.376  75.089  45.090  0.00  0.00    -0.000 C 
ATOM      8  C   UNL     1      49.450  75.778  44.693  0.00  0.00    -0.000 C 
ATOM      9  C   UNL     1      50.515  75.352  43.809  0.00  0.00    +0.000 C 
ATOM     10  C   UNL     1      50.642  75.454  42.505  0.00  0.00    +0.000 C 
ATOM     11  C   UNL     1      49.786  76.030  41.495  0.00  0.00    -0.000 C 
ATOM     12  C   UNL     1      49.801  77.272  40.999  0.00  0.00    -0.000 C 
ATOM     13  C   UNL     1      50.692  78.356  41.357  0.00  0.00    -0.000 C 
ATOM     14  C   UNL     1      50.614  79.230  42.342  0.00  0.00    -0.000 C 
ATOM     15  C   UNL     1      49.603  79.378  43.361  0.00  0.00    -0.002 C 
ATOM     16  C   UNL     1      48.444  79.957  43.297  0.00  0.00    +0.003 C 
ATOM     17  C   UNL     1      47.828  80.655  42.109  0.00  0.00    +0.142 C 
ATOM     18  C   UNL     1      46.784  79.774  41.514  0.00  0.00    +0.068 C 
ATOM     19  C   UNL     1      45.952  80.392  40.441  0.00  0.00    +0.168 C 
ATOM     20  C   UNL     1      45.011  79.412  39.753  0.00  0.00    +0.164 C 
ATOM     21  C   UNL     1      45.615  78.850  38.502  0.00  0.00    +0.172 C 
ATOM     22  C   UNL     1      44.735  78.921  37.308  0.00  0.00    +0.098 C 
ATOM     23  C   UNL     1      43.443  78.248  37.535  0.00  0.00    +0.156 C 
ATOM     24  O   UNL     1      43.383  77.304  38.297  0.00  0.00    -0.296 OA
ATOM     25  C   UNL     1      42.222  78.740  36.820  0.00  0.00    +0.097 C 
ATOM     26  C   UNL     1      41.049  77.804  37.014  0.00  0.00    +0.162 C 
ATOM     27  C   UNL     1      40.184  77.905  35.766  0.00  0.00    +0.066 C 
ATOM     28  C   UNL     1      38.857  77.226  36.025  0.00  0.00    +0.157 C 
ATOM     29  C   UNL     1      39.123  75.872  36.641  0.00  0.00    +0.066 C 
ATOM     30  C   UNL     1      37.865  75.061  36.776  0.00  0.00    +0.162 C 
ATOM     31  C   UNL     1      37.632  74.650  38.210  0.00  0.00    +0.097 C 
ATOM     32  C   UNL     1      37.652  73.159  38.279  0.00  0.00    +0.153 C 
ATOM     33  O   UNL     1      36.745  72.594  37.663  0.00  0.00    -0.296 OA
ATOM     34  C   UNL     1      38.670  72.402  39.021  0.00  0.00    +0.065 C 
ATOM     35  C   UNL     1      40.043  72.599  38.403  0.00  0.00    +0.016 C 
ATOM     36  C   UNL     1      41.125  72.237  39.367  0.00  0.00    +0.066 C 
ATOM     37  C   UNL     1      42.215  73.248  39.414  0.00  0.00    +0.162 C 
ATOM     38  O   UNL     1      42.504  73.926  38.455  0.00  0.00    -0.295 OA
ATOM     39  C   UNL     1      42.985  73.431  40.703  0.00  0.00    +0.174 C 
ATOM     40  C   UNL     1      42.429  74.525  41.535  0.00  0.00    +0.324 C 
ATOM     41  O   UNL     1      41.233  74.870  41.210  0.00  0.00    -0.250 OA
ATOM     42  O   UNL     1      43.132  75.088  42.529  0.00  0.00    -0.452 OA
ATOM     43  C   UNL     1      43.663  74.672  43.729  0.00  0.00    +0.173 C 
ATOM     44  O   UNL     1      37.944  73.953  35.951  0.00  0.00    -0.223 OA
ATOM     45  O   UNL     1      38.228  77.068  34.787  0.00  0.00    -0.223 OA
ATOM     46  O   UNL     1      40.339  78.193  38.150  0.00  0.00    -0.223 OA
ATOM     47  O   UNL     1      45.965  77.504  38.690  0.00  0.00    -0.222 OA
ATOM     48  O   UNL     1      45.158  81.362  41.048  0.00  0.00    -0.222 OA
ENDROOT
BRANCH  20  49
ATOM     49  C   UNL     1      43.794  80.182  39.414  0.00  0.00    +0.369 C 
ATOM     50  O   UNL     1      42.649  79.919  39.872  0.00  0.00    -0.245 OA
ATOM     51  O   UNL     1      43.886  81.270  38.543  0.00  0.00    -0.245 OA
ENDBRANCH  20  49
BRANCH  43  52
ATOM     52  C   UNL     1      43.561  73.199  43.967  0.00  0.00    +0.041 C 
ATOM     53  C   UNL     1      42.241  72.945  44.667  0.00  0.00    +0.004 C 
BRANCH  52  54
ATOM     54  C   UNL     1      44.636  72.585  44.792  0.00  0.00    +0.006 C 
BRANCH  54  55
ATOM     55  C   UNL     1      45.501  71.701  43.927  0.00  0.00    +0.031 C 
ATOM     56  C   UNL     1      46.035  72.388  42.687  0.00  0.00    +0.003 C 
BRANCH  55  57
ATOM     57  C   UNL     1      46.753  71.253  44.687  0.00  0.00    +0.160 C 
ATOM     58  O   UNL     1      47.429  72.406  45.050  0.00  0.00    -0.223 OA
BRANCH  57  59
ATOM     59  C   UNL     1      47.633  70.331  43.904  0.00  0.00    +0.102 C 
BRANCH  59  60
ATOM     60  C   UNL     1      48.833  70.019  44.734  0.00  0.00    +0.176 C 
ATOM     61  O   UNL     1      48.912  70.500  45.888  0.00  0.00    -0.291 OA
BRANCH  60  62
ATOM     62  C   UNL     1      49.917  69.180  44.255  0.00  0.00    +0.035 A 
ATOM     63  C   UNL     1      50.029  68.721  42.969  0.00  0.00    +0.004 A 
ATOM     64  C   UNL     1      51.091  67.936  42.530  0.00  0.00    +0.018 A 
ATOM     65  C   UNL     1      52.091  67.589  43.407  0.00  0.00    +0.089 A 
ATOM     66  C   UNL     1      52.008  68.038  44.719  0.00  0.00    +0.018 A 
ATOM     67  C   UNL     1      50.941  68.814  45.119  0.00  0.00    +0.004 A 
ATOM     68  N   UNL     1      53.171  66.791  42.952  0.00  0.00    -0.128 NA
ENDBRANCH  60  62
ENDBRANCH  59  60
ENDBRANCH  57  59
ENDBRANCH  55  57
ENDBRANCH  54  55
ENDBRANCH  52  54
ENDBRANCH  43  52
BRANCH  17  69
ATOM     69  O   UNL     1      48.760  81.179  41.238  0.00  0.00    -0.327 OA
BRANCH  69  70
ATOM     70  C   UNL     1      48.733  82.548  41.105  0.00  0.00    +0.268 C 
ATOM     71  C   UNL     1      50.032  83.248  40.884  0.00  0.00    +0.228 C 
ATOM     72  C   UNL     1      50.883  83.255  42.134  0.00  0.00    +0.160 C 
ATOM     73  C   UNL     1      50.052  84.075  43.139  0.00  0.00    +0.199 C 
ATOM     74  C   UNL     1      48.690  83.427  43.282  0.00  0.00    +0.150 C 
ATOM     75  O   UNL     1      48.062  83.194  42.109  0.00  0.00    -0.328 OA
ATOM     76  C   UNL     1      48.826  82.246  44.219  0.00  0.00    +0.035 C 
ATOM     77  O   UNL     1      50.670  84.089  44.384  0.00  0.00    -0.219 OA
ATOM     78  N   UNL     1      52.084  84.025  41.888  0.00  0.00    -0.127 NA
ATOM     79  O   UNL     1      50.699  82.982  39.727  0.00  0.00    -0.216 OA
ENDBRANCH  69  70
ENDBRANCH  17  69
TORSDOF 10
