REMARK  Name = Candesartan
REMARK  7 active torsions:
REMARK  status: ('A' for Active; 'I' for Inactive)
REMARK    1  A    between atoms: C_2  and  O_3
REMARK    2  A    between atoms: O_3  and  C_4
REMARK    3  A    between atoms: C_10  and  C_31
REMARK    4  A    between atoms: N_12  and  C_13
REMARK    5  A    between atoms: C_13  and  C_14
REMARK    6  A    between atoms: C_17  and  C_20
REMARK    7  A    between atoms: C_25  and  C_26
REMARK                            x       y       z     vdW  Elec       q    Type
REMARK                         _______ _______ _______ _____ _____    ______ ____
ROOT
ATOM      1  C   UNL     1      45.861  80.397  41.776  0.00  0.00    +0.001 A 
ATOM      2  C   UNL     1      46.291  81.668  41.434  0.00  0.00    -0.002 A 
ATOM      3  C   UNL     1      47.607  82.085  41.508  0.00  0.00    -0.000 A 
ATOM      4  C   UNL     1      48.579  81.210  41.943  0.00  0.00    +0.000 A 
ATOM      5  C   UNL     1      48.160  79.945  42.286  0.00  0.00    -0.000 A 
ATOM      6  C   UNL     1      46.848  79.537  42.211  0.00  0.00    -0.002 A 
ENDROOT
BRANCH   4   7
ATOM      7  C   UNL     1      49.989  81.564  42.059  0.00  0.00    +0.003 A 
ATOM      8  C   UNL     1      50.982  80.658  41.658  0.00  0.00    +0.000 A 
ATOM      9  C   UNL     1      52.321  80.974  41.746  0.00  0.00    +0.000 A 
ATOM     10  C   UNL     1      52.657  82.218  42.244  0.00  0.00    +0.000 A 
ATOM     11  C   UNL     1      51.741  83.136  42.648  0.00  0.00    +0.003 A 
ATOM     12  C   UNL     1      50.386  82.790  42.549  0.00  0.00    +0.039 A 
BRANCH  12  13
ATOM     13  C   UNL     1      49.365  83.746  42.980  0.00  0.00    +0.208 A 
ATOM     14  N   UNL     1      48.727  84.618  42.168  0.00  0.00    -0.106 NA
ATOM     15  N   UNL     1      47.872  85.341  42.867  0.00  0.00    -0.021 NA
ATOM     16  N   UNL     1      47.941  84.948  44.149  0.00  0.00    -0.021 NA
ATOM     17  N   UNL     1      48.847  83.988  44.190  0.00  0.00    -0.106 NA
ENDBRANCH  12  13
ENDBRANCH   4   7
BRANCH   1  18
ATOM     18  C   UNL     1      44.426  80.078  41.689  0.00  0.00    +0.137 C 
BRANCH  18  27
ATOM     19  C   UNL     1      44.145  77.653  41.535  0.00  0.00    +0.301 A 
ATOM     20  N   UNL     1      43.825  76.759  40.616  0.00  0.00    -0.194 NA
ATOM     21  C   UNL     1      43.569  77.356  39.471  0.00  0.00    +0.102 A 
ATOM     22  C   UNL     1      43.195  76.852  38.257  0.00  0.00    +0.021 A 
ATOM     23  C   UNL     1      42.978  77.704  37.210  0.00  0.00    +0.002 A 
ATOM     24  C   UNL     1      43.130  79.049  37.369  0.00  0.00    +0.008 A 
ATOM     25  C   UNL     1      43.515  79.579  38.620  0.00  0.00    +0.097 A 
ATOM     26  C   UNL     1      43.740  78.734  39.684  0.00  0.00    +0.088 A 
ATOM     27  N   UNL     1      44.095  78.910  40.957  0.00  0.00    -0.277 N 
BRANCH  25  28
ATOM     28  C   UNL     1      43.639  80.989  38.709  0.00  0.00    +0.389 C 
ATOM     29  O   UNL     1      44.029  81.430  39.885  0.00  0.00    -0.240 OA
ATOM     30  O   UNL     1      43.442  81.981  37.838  0.00  0.00    -0.240 OA
ENDBRANCH  25  28
BRANCH  19  31
ATOM     31  O   UNL     1      44.472  77.375  42.848  0.00  0.00    -0.448 OA
BRANCH  31  33
ATOM     32  C   UNL     1      44.964  75.929  44.711  0.00  0.00    +0.051 C 
ATOM     33  C   UNL     1      44.384  76.047  43.311  0.00  0.00    +0.209 C 
ENDBRANCH  31  33
ENDBRANCH  19  31
ENDBRANCH  18  27
ENDBRANCH   1  18
TORSDOF 7
