REMARK  Name = Cangrelor
REMARK  16 active torsions:
REMARK  status: ('A' for Active; 'I' for Inactive)
REMARK    1  A    between atoms: S_2  and  C_3
REMARK    2  A    between atoms: C_3  and  C_4
REMARK    3  A    between atoms: C_4  and  N_5
REMARK    4  A    between atoms: N_5  and  C_6
REMARK    5  A    between atoms: C_10  and  S_12
REMARK    6  A    between atoms: S_12  and  C_13
REMARK    7  A    between atoms: C_13  and  C_14
REMARK    8  A    between atoms: C_14  and  C_15
REMARK    9  A    between atoms: N_19  and  C_22
REMARK   10  A    between atoms: C_25  and  C_27
REMARK   11  A    between atoms: C_27  and  O_28
REMARK   12  A    between atoms: O_28  and  P_29
REMARK   13  A    between atoms: P_29  and  O_32
REMARK   14  A    between atoms: O_32  and  P_33
REMARK   15  A    between atoms: P_33  and  C_35
REMARK   16  A    between atoms: C_35  and  P_36
REMARK                            x       y       z     vdW  Elec       q    Type
REMARK                         _______ _______ _______ _____ _____    ______ ____
ROOT
ATOM      1  C   UNL     1      45.271  78.233  39.960  0.00  0.00    +0.241 C 
ATOM      2  C   UNL     1      44.487  78.353  41.246  0.00  0.00    +0.234 C 
ATOM      3  C   UNL     1      43.096  78.031  40.736  0.00  0.00    +0.216 C 
ATOM      4  C   UNL     1      43.484  76.903  39.767  0.00  0.00    +0.180 C 
ATOM      5  O   UNL     1      44.535  77.484  39.069  0.00  0.00    -0.331 OA
ATOM      6  O   UNL     1      42.235  77.609  41.712  0.00  0.00    -0.218 OA
ATOM      7  O   UNL     1      44.865  77.334  42.134  0.00  0.00    -0.216 OA
ENDROOT
BRANCH   1  14
ATOM      8  C   UNL     1      47.015  82.751  39.672  0.00  0.00    +0.170 A 
ATOM      9  C   UNL     1      46.337  81.622  39.263  0.00  0.00    +0.150 A 
ATOM     10  C   UNL     1      46.279  80.502  40.078  0.00  0.00    +0.169 A 
ATOM     11  N   UNL     1      46.898  80.538  41.278  0.00  0.00    -0.202 NA
ATOM     12  C   UNL     1      47.563  81.631  41.691  0.00  0.00    +0.193 A 
ATOM     13  N   UNL     1      47.598  82.699  40.875  0.00  0.00    -0.203 NA
ATOM     14  N   UNL     1      45.559  79.545  39.441  0.00  0.00    -0.269 N 
ATOM     15  C   UNL     1      45.185  80.067  38.264  0.00  0.00    +0.182 A 
ATOM     16  N   UNL     1      45.651  81.323  38.147  0.00  0.00    -0.219 NA
BRANCH   8  17
ATOM     17  N   UNL     1      47.053  83.872  38.817  0.00  0.00    -0.218 NA
BRANCH  17  18
ATOM     18  C   UNL     1      47.167  85.198  39.367  0.00  0.00    +0.125 C 
BRANCH  18  19
ATOM     19  C   UNL     1      48.610  85.642  39.490  0.00  0.00    +0.081 C 
BRANCH  19  21
ATOM     20  C   UNL     1      51.417  84.825  40.069  0.00  0.00    +0.069 C 
ATOM     21  S   UNL     1      49.707  84.291  39.951  0.00  0.00    -0.137 S 
ENDBRANCH  19  21
ENDBRANCH  18  19
ENDBRANCH  17  18
ENDBRANCH   8  17
BRANCH  12  22
ATOM     22  S   UNL     1      48.386  81.660  43.301  0.00  0.00    -0.075 S 
BRANCH  22  23
ATOM     23  C   UNL     1      50.167  81.618  43.122  0.00  0.00    +0.074 C 
BRANCH  23  24
ATOM     24  C   UNL     1      50.762  82.557  44.148  0.00  0.00    +0.115 C 
BRANCH  24  25
ATOM     25  C   UNL     1      50.248  83.968  43.992  0.00  0.00    +0.399 C 
ATOM     26  F   UNL     1      48.904  83.956  44.318  0.00  0.00    -0.170 F 
ATOM     27  F   UNL     1      50.893  84.800  44.884  0.00  0.00    -0.170 F 
ATOM     28  F   UNL     1      50.350  84.421  42.702  0.00  0.00    -0.170 F 
ENDBRANCH  24  25
ENDBRANCH  23  24
ENDBRANCH  22  23
ENDBRANCH  12  22
ENDBRANCH   1  14
BRANCH   4  29
ATOM     29  C   UNL     1      42.382  76.587  38.818  0.00  0.00    +0.186 C 
BRANCH  29  30
ATOM     30  O   UNL     1      42.244  77.528  37.806  0.00  0.00    -0.269 OA
BRANCH  30  31
ATOM     31  P   UNL     1      40.685  77.652  37.231  0.00  0.00    +0.513 P 
ATOM     32  O   UNL     1      39.678  77.710  38.369  0.00  0.00    -0.224 OA
ATOM     33  O   UNL     1      40.441  78.984  36.248  0.00  0.00    -0.116 OA
BRANCH  31  34
ATOM     34  O   UNL     1      40.334  76.240  36.344  0.00  0.00    -0.202 OA
BRANCH  34  35
ATOM     35  P   UNL     1      39.257  75.244  37.184  0.00  0.00    +0.415 P 
ATOM     36  O   UNL     1      39.960  74.504  38.314  0.00  0.00    -0.252 OA
ATOM     37  O   UNL     1      38.034  76.163  37.888  0.00  0.00    -0.137 OA
BRANCH  35  38
ATOM     38  C   UNL     1      38.604  73.999  36.057  0.00  0.00    +0.324 C 
ATOM     39 CL   UNL     1      39.700  73.750  34.689  0.00  0.00    -0.075 Cl
ATOM     40 CL   UNL     1      38.332  72.441  36.846  0.00  0.00    -0.075 Cl
BRANCH  38  41
ATOM     41  P   UNL     1      36.976  74.599  35.463  0.00  0.00    +0.433 P 
ATOM     42  O   UNL     1      37.224  75.788  34.557  0.00  0.00    -0.250 OA
ATOM     43  O   UNL     1      36.269  73.340  34.613  0.00  0.00    -0.136 OA
ATOM     44  O   UNL     1      36.039  75.034  36.793  0.00  0.00    -0.136 OA
ENDBRANCH  38  41
ENDBRANCH  35  38
ENDBRANCH  34  35
ENDBRANCH  31  34
ENDBRANCH  30  31
ENDBRANCH  29  30
ENDBRANCH   4  29
TORSDOF 16
