REMARK  Name = Capecitabine
REMARK  6 active torsions:
REMARK  status: ('A' for Active; 'I' for Inactive)
REMARK    1  A    between atoms: C_2  and  C_3
REMARK    2  A    between atoms: C_3  and  C_4
REMARK    3  A    between atoms: C_4  and  C_5
REMARK    4  A    between atoms: C_5  and  O_6
REMARK    5  A    between atoms: O_6  and  C_7
REMARK    6  A    between atoms: N_14  and  C_18
REMARK                            x       y       z     vdW  Elec       q    Type
REMARK                         _______ _______ _______ _____ _____    ______ ____
ROOT
ATOM      1  C   UNL     1      47.664  81.282  41.194  0.00  0.00    +0.427 C 
ATOM      2  O   UNL     1      47.710  80.174  41.743  0.00  0.00    -0.224 OA
ATOM      3  N   UNL     1      46.663  81.512  40.244  0.00  0.00    -0.121 NA
ATOM      4  C   UNL     1      45.656  80.646  39.783  0.00  0.00    +0.191 A 
ATOM      5  N   UNL     1      45.459  79.469  40.480  0.00  0.00    -0.173 NA
ATOM      6  C   UNL     1      44.546  78.564  40.156  0.00  0.00    +0.353 A 
ATOM      7  O   UNL     1      44.401  77.488  40.834  0.00  0.00    -0.244 OA
ATOM      8  N   UNL     1      43.709  78.693  39.110  0.00  0.00    -0.251 N 
ATOM      9  C   UNL     1      43.859  79.817  38.401  0.00  0.00    +0.115 A 
ATOM     10  C   UNL     1      44.819  80.793  38.722  0.00  0.00    +0.191 A 
ATOM     11  F   UNL     1      44.869  81.881  37.927  0.00  0.00    -0.200 F 
ENDROOT
BRANCH   8  12
ATOM     12  C   UNL     1      42.723  77.690  38.779  0.00  0.00    +0.242 C 
ATOM     13  C   UNL     1      41.661  77.548  39.845  0.00  0.00    +0.234 C 
ATOM     14  C   UNL     1      40.396  77.302  39.052  0.00  0.00    +0.214 C 
ATOM     15  C   UNL     1      40.941  77.141  37.645  0.00  0.00    +0.150 C 
ATOM     16  O   UNL     1      42.046  77.989  37.599  0.00  0.00    -0.333 OA
ATOM     17  C   UNL     1      41.315  75.700  37.467  0.00  0.00    +0.035 C 
ATOM     18  O   UNL     1      39.780  76.145  39.506  0.00  0.00    -0.218 OA
ATOM     19  O   UNL     1      41.944  76.514  40.729  0.00  0.00    -0.216 OA
ENDBRANCH   8  12
BRANCH   1  20
ATOM     20  O   UNL     1      48.587  82.290  41.508  0.00  0.00    -0.433 OA
BRANCH  20  21
ATOM     21  C   UNL     1      49.273  82.331  42.702  0.00  0.00    +0.210 C 
BRANCH  21  22
ATOM     22  C   UNL     1      50.327  83.342  42.900  0.00  0.00    +0.048 C 
BRANCH  22  23
ATOM     23  C   UNL     1      51.129  83.301  44.144  0.00  0.00    +0.004 C 
BRANCH  23  25
ATOM     24  C   UNL     1      51.696  85.569  44.848  0.00  0.00    +0.000 C 
ATOM     25  C   UNL     1      52.195  84.432  43.986  0.00  0.00    +0.000 C 
ENDBRANCH  23  25
ENDBRANCH  22  23
ENDBRANCH  21  22
ENDBRANCH  20  21
ENDBRANCH   1  20
TORSDOF 6
