REMARK  Name = Capivasertib
REMARK  5 active torsions:
REMARK  status: ('A' for Active; 'I' for Inactive)
REMARK    1  A    between atoms: C_6  and  C_7
REMARK    2  A    between atoms: N_9  and  C_10
REMARK    3  A    between atoms: C_10  and  C_11
REMARK    4  A    between atoms: C_10  and  C_14
REMARK    5  A    between atoms: C_11  and  C_12
REMARK                            x       y       z     vdW  Elec       q    Type
REMARK                         _______ _______ _______ _____ _____    ______ ____
ROOT
ATOM      1  C   UNL     1      49.959  80.758  41.134  0.00  0.00    +0.048 C 
ATOM      2  C   UNL     1      49.079  81.731  40.437  0.00  0.00    +0.094 C 
ATOM      3  N   UNL     1      47.713  81.565  40.855  0.00  0.00    -0.293 N 
ATOM      4  C   UNL     1      47.466  81.419  42.270  0.00  0.00    +0.094 C 
ATOM      5  C   UNL     1      48.721  81.719  43.083  0.00  0.00    +0.048 C 
ATOM      6  C   UNL     1      49.868  80.844  42.623  0.00  0.00    +0.150 C 
ATOM      7  N   UNL     1      49.627  79.525  43.223  0.00  0.00    -0.125 NA
ATOM      8  C   UNL     1      46.583  81.546  39.994  0.00  0.00    +0.136 A 
ATOM      9  N   UNL     1      46.346  82.571  39.123  0.00  0.00    -0.209 NA
ATOM     10  C   UNL     1      45.281  82.566  38.306  0.00  0.00    +0.201 A 
ATOM     11  N   UNL     1      44.393  81.557  38.297  0.00  0.00    -0.205 NA
ATOM     12  C   UNL     1      44.597  80.515  39.155  0.00  0.00    +0.167 A 
ATOM     13  C   UNL     1      45.684  80.500  40.003  0.00  0.00    +0.069 A 
ATOM     14  C   UNL     1      45.628  79.323  40.748  0.00  0.00    +0.027 A 
ATOM     15  C   UNL     1      44.514  78.662  40.332  0.00  0.00    +0.101 A 
ATOM     16  N   UNL     1      43.900  79.377  39.379  0.00  0.00    -0.225 NA
ENDROOT
BRANCH   6  17
ATOM     17  C   UNL     1      51.126  81.370  43.188  0.00  0.00    +0.257 C 
ATOM     18  O   UNL     1      52.090  80.555  43.373  0.00  0.00    -0.272 OA
ATOM     19  N   UNL     1      51.360  82.722  43.547  0.00  0.00    -0.201 NA
BRANCH  19  20
ATOM     20  C   UNL     1      52.695  83.247  43.787  0.00  0.00    +0.120 C 
BRANCH  20  21
ATOM     21  C   UNL     1      52.909  83.551  45.223  0.00  0.00    -0.002 A 
ATOM     22  C   UNL     1      54.004  83.109  45.939  0.00  0.00    -0.002 A 
ATOM     23  C   UNL     1      54.200  83.389  47.262  0.00  0.00    +0.011 A 
ATOM     24  C   UNL     1      53.282  84.145  47.944  0.00  0.00    +0.058 A 
ATOM     25  C   UNL     1      52.179  84.607  47.277  0.00  0.00    +0.011 A 
ATOM     26  C   UNL     1      51.993  84.319  45.945  0.00  0.00    -0.002 A 
ATOM     27 CL   UNL     1      53.516  84.517  49.646  0.00  0.00    -0.082 Cl
ENDBRANCH  20  21
BRANCH  20  28
ATOM     28  C   UNL     1      52.969  84.460  42.919  0.00  0.00    +0.062 C 
BRANCH  28  29
ATOM     29  C   UNL     1      52.952  83.997  41.476  0.00  0.00    +0.184 C 
ATOM     30  O   UNL     1      54.048  83.209  41.157  0.00  0.00    -0.220 OA
ENDBRANCH  28  29
ENDBRANCH  20  28
ENDBRANCH  19  20
ENDBRANCH   6  17
TORSDOF 5
