REMARK  Name = Capreomycin
REMARK  19 active torsions:
REMARK  status: ('A' for Active; 'I' for Inactive)
REMARK    1  A    between atoms: C_6  and  C_36
REMARK    2  A    between atoms: C_11  and  N_12
REMARK    3  A    between atoms: C_19  and  C_29
REMARK    4  A    between atoms: C_36  and  N_37
REMARK    5  A    between atoms: C_38  and  C_40
REMARK    6  A    between atoms: C_40  and  C_41
REMARK    7  A    between atoms: C_41  and  C_42
REMARK    8  A    between atoms: C_42  and  C_43
REMARK    9  A    between atoms: C_43  and  C_44
REMARK   10  A    between atoms: C_52  and  C_53
REMARK   11  A    between atoms: CA_62  and  C_90
REMARK   12  A    between atoms: C_66  and  C_79
REMARK   13  A    between atoms: C_71  and  N_72
REMARK   14  A    between atoms: C_79  and  N_80
REMARK   15  A    between atoms: C_81  and  C_83
REMARK   16  A    between atoms: C_83  and  C_84
REMARK   17  A    between atoms: C_84  and  C_85
REMARK   18  A    between atoms: C_85  and  C_86
REMARK   19  A    between atoms: C_86  and  C_87
REMARK                            x       y       z     vdW  Elec       q    Type
REMARK                         _______ _______ _______ _____ _____    ______ ____
ROOT
ATOM      1  C   UNL     1      42.963  72.119  43.721  0.00  0.00    +0.033 C 
ATOM      2  C   UNL     1      42.282  73.307  42.968  0.00  0.00    +0.173 C 
ATOM      3  C   UNL     1      43.295  74.320  42.851  0.00  0.00    +0.262 C 
ATOM      4  O   UNL     1      44.016  74.298  44.001  0.00  0.00    -0.271 OA
ATOM      5  N   UNL     1      43.769  75.282  41.985  0.00  0.00    -0.194 NA
ATOM      6  C   UNL     1      43.514  76.618  41.619  0.00  0.00    +0.195 C 
ATOM      7  C   UNL     1      43.496  77.171  40.309  0.00  0.00    +0.267 C 
ATOM      8  O   UNL     1      42.808  78.374  40.330  0.00  0.00    -0.271 OA
ATOM      9  N   UNL     1      43.928  76.921  39.024  0.00  0.00    -0.172 NA
ATOM     10  C   UNL     1      44.256  75.975  38.158  0.00  0.00    +0.145 C 
ATOM     11  C   UNL     1      44.571  75.063  37.325  0.00  0.00    +0.112 C 
ATOM     12  C   UNL     1      43.155  74.751  38.958  0.00  0.00    +0.282 C 
ATOM     13  O   UNL     1      43.767  73.732  39.138  0.00  0.00    -0.267 OA
ATOM     14  N   UNL     1      41.887  75.099  39.229  0.00  0.00    -0.191 NA
ATOM     15  C   UNL     1      40.791  75.965  38.923  0.00  0.00    +0.193 C 
ATOM     16  C   UNL     1      39.795  76.212  39.997  0.00  0.00    +0.263 C 
ATOM     17  O   UNL     1      39.529  77.458  40.227  0.00  0.00    -0.271 OA
ATOM     18  N   UNL     1      39.092  75.255  40.800  0.00  0.00    -0.202 NA
ATOM     19  C   UNL     1      39.624  74.134  41.460  0.00  0.00    +0.143 C 
ATOM     20  C   UNL     1      38.867  73.477  42.575  0.00  0.00    +0.191 C 
ATOM     21  C   UNL     1      39.833  73.256  43.698  0.00  0.00    +0.261 C 
ATOM     22  O   UNL     1      39.277  72.600  44.676  0.00  0.00    -0.272 OA
ATOM     23  N   UNL     1      41.163  73.639  43.814  0.00  0.00    -0.197 NA
ATOM     24  N   UNL     1      38.431  72.106  42.221  0.00  0.00    -0.121 NA
ENDROOT
BRANCH  15  25
ATOM     25  C   UNL     1      40.076  75.682  37.606  0.00  0.00    +0.126 C 
ATOM     26  C   UNL     1      41.022  76.142  36.474  0.00  0.00    +0.050 C 
ATOM     27  C   UNL     1      40.459  75.568  35.195  0.00  0.00    +0.130 C 
ATOM     28  N   UNL     1      40.898  74.143  35.273  0.00  0.00    -0.240 NA
ATOM     29  C   UNL     1      40.540  73.548  36.408  0.00  0.00    +0.237 C 
ATOM     30  N   UNL     1      39.814  74.292  37.379  0.00  0.00    -0.205 NA
ATOM     31  N   UNL     1      40.921  72.206  36.566  0.00  0.00    -0.089 NA
ENDBRANCH  15  25
BRANCH  11  32
ATOM     32  N   UNL     1      43.574  74.474  36.385  0.00  0.00    -0.157 NA
ATOM     33  C   UNL     1      42.490  75.166  35.861  0.00  0.00    +0.363 C 
ATOM     34  O   UNL     1      41.498  74.511  35.399  0.00  0.00    -0.247 OA
ATOM     35  N   UNL     1      42.354  76.582  35.762  0.00  0.00    -0.068 NA
ENDBRANCH  11  32
BRANCH   6  36
ATOM     36  C   UNL     1      44.620  77.439  42.419  0.00  0.00    +0.146 C 
BRANCH  36  37
ATOM     37  N   UNL     1      44.638  78.685  41.697  0.00  0.00    -0.203 NA
ATOM     38  C   UNL     1      45.831  79.200  41.008  0.00  0.00    +0.243 C 
ATOM     39  O   UNL     1      46.544  78.432  40.415  0.00  0.00    -0.273 OA
BRANCH  38  40
ATOM     40  C   UNL     1      45.998  80.703  41.106  0.00  0.00    +0.106 C 
BRANCH  40  41
ATOM     41  C   UNL     1      47.383  81.121  40.851  0.00  0.00    +0.101 C 
ATOM     42  N   UNL     1      47.606  80.965  39.398  0.00  0.00    -0.132 NA
BRANCH  41  43
ATOM     43  C   UNL     1      47.697  82.498  41.306  0.00  0.00    +0.021 C 
BRANCH  43  44
ATOM     44  C   UNL     1      49.228  82.646  41.288  0.00  0.00    +0.022 C 
BRANCH  44  45
ATOM     45  C   UNL     1      49.542  84.032  41.788  0.00  0.00    +0.109 C 
ATOM     46  N   UNL     1      50.397  84.020  42.957  0.00  0.00    -0.131 NA
ENDBRANCH  44  45
ENDBRANCH  43  44
ENDBRANCH  41  43
ENDBRANCH  40  41
ENDBRANCH  38  40
ENDBRANCH  36  37
ENDBRANCH   6  36
TORSDOF 9
REMARK  Name = Capreomycin
REMARK  19 active torsions:
REMARK  status: ('A' for Active; 'I' for Inactive)
REMARK    1  A    between atoms: C_6  and  C_36
REMARK    2  A    between atoms: C_11  and  N_12
REMARK    3  A    between atoms: C_19  and  C_29
REMARK    4  A    between atoms: C_36  and  N_37
REMARK    5  A    between atoms: C_38  and  C_40
REMARK    6  A    between atoms: C_40  and  C_41
REMARK    7  A    between atoms: C_41  and  C_42
REMARK    8  A    between atoms: C_42  and  C_43
REMARK    9  A    between atoms: C_43  and  C_44
REMARK   10  A    between atoms: C_52  and  C_53
REMARK   11  A    between atoms: CA_62  and  C_90
REMARK   12  A    between atoms: C_66  and  C_79
REMARK   13  A    between atoms: C_71  and  N_72
REMARK   14  A    between atoms: C_79  and  N_80
REMARK   15  A    between atoms: C_81  and  C_83
REMARK   16  A    between atoms: C_83  and  C_84
REMARK   17  A    between atoms: C_84  and  C_85
REMARK   18  A    between atoms: C_85  and  C_86
REMARK   19  A    between atoms: C_86  and  C_87
REMARK                            x       y       z     vdW  Elec       q    Type
REMARK                         _______ _______ _______ _____ _____    ______ ____
ROOT
ATOM      1  C   UNL     1      41.057  76.253  38.348  0.00  0.00    +0.193 C 
ATOM      2  C   UNL     1      40.405  77.543  37.994  0.00  0.00    +0.263 C 
ATOM      3  O   UNL     1      40.240  77.669  36.707  0.00  0.00    -0.271 OA
ATOM      4  N   UNL     1      39.972  78.577  38.820  0.00  0.00    -0.202 NA
ATOM      5  C   UNL     1      38.931  78.640  39.805  0.00  0.00    +0.143 C 
ATOM      6  CA  UNL     1      39.202  79.683  40.878  0.00  0.00    +0.191 C 
ATOM      7  C   UNL     1      39.934  79.180  42.044  0.00  0.00    +0.261 C 
ATOM      8  O   UNL     1      39.248  79.108  43.147  0.00  0.00    -0.272 OA
ATOM      9  N   UNL     1      41.262  78.756  42.168  0.00  0.00    -0.194 NA
ATOM     10  CA  UNL     1      42.515  79.437  41.971  0.00  0.00    +0.205 C 
ATOM     11  C   UNL     1      43.032  79.389  40.579  0.00  0.00    +0.264 C 
ATOM     12  O   UNL     1      42.702  80.468  39.930  0.00  0.00    -0.271 OA
ATOM     13  N   UNL     1      43.767  78.421  39.919  0.00  0.00    -0.194 NA
ATOM     14  C   UNL     1      45.079  77.861  40.117  0.00  0.00    +0.195 C 
ATOM     15  C   UNL     1      45.325  76.657  39.303  0.00  0.00    +0.267 C 
ATOM     16  O   UNL     1      46.473  76.718  38.675  0.00  0.00    -0.271 OA
ATOM     17  N   UNL     1      44.525  75.513  39.123  0.00  0.00    -0.172 NA
ATOM     18  C   UNL     1      43.582  74.844  39.922  0.00  0.00    +0.145 C 
ATOM     19  C   UNL     1      43.771  73.545  40.296  0.00  0.00    +0.112 C 
ATOM     20  C   UNL     1      42.310  75.392  40.419  0.00  0.00    +0.282 C 
ATOM     21  O   UNL     1      42.059  75.132  41.655  0.00  0.00    -0.267 OA
ATOM     22  N   UNL     1      41.348  76.150  39.731  0.00  0.00    -0.191 NA
ATOM     23  N   UNL     1      39.667  80.920  40.319  0.00  0.00    -0.121 NA
ENDROOT
BRANCH   1  29
ATOM     24  C   UNL     1      40.907  73.946  37.329  0.00  0.00    +0.050 C 
ATOM     25  C   UNL     1      39.868  72.827  37.187  0.00  0.00    +0.130 C 
ATOM     26  N   UNL     1      38.786  73.274  36.374  0.00  0.00    -0.240 NA
ATOM     27  C   UNL     1      38.460  74.515  36.214  0.00  0.00    +0.237 C 
ATOM     28  N   UNL     1      39.194  75.538  36.870  0.00  0.00    -0.205 NA
ATOM     29  C   UNL     1      40.161  75.156  37.857  0.00  0.00    +0.126 C 
ATOM     30  N   UNL     1      37.351  74.787  35.372  0.00  0.00    -0.089 NA
ENDBRANCH   1  29
BRANCH  19  31
ATOM     31  N   UNL     1      44.128  73.188  41.625  0.00  0.00    -0.157 NA
ATOM     32  C   UNL     1      44.369  71.879  42.048  0.00  0.00    +0.363 C 
ATOM     33  O   UNL     1      43.381  71.099  42.191  0.00  0.00    -0.247 OA
ATOM     34  N   UNL     1      45.683  71.407  42.317  0.00  0.00    -0.068 NA
ENDBRANCH  19  31
BRANCH  10  35
ATOM     35  C   UNL     1      42.534  80.866  42.493  0.00  0.00    +0.213 C 
ATOM     36  O   UNL     1      43.466  81.641  41.824  0.00  0.00    -0.218 OA
ENDBRANCH  10  35
BRANCH  14  37
ATOM     37  C   UNL     1      45.586  77.857  41.513  0.00  0.00    +0.146 C 
BRANCH  37  38
ATOM     38  N   UNL     1      46.432  76.778  41.922  0.00  0.00    -0.203 NA
ATOM     39  C   UNL     1      46.413  76.044  43.113  0.00  0.00    +0.243 C 
ATOM     40  O   UNL     1      46.117  76.601  44.169  0.00  0.00    -0.273 OA
BRANCH  39  41
ATOM     41  C   UNL     1      46.763  74.586  43.033  0.00  0.00    +0.106 C 
BRANCH  41  42
ATOM     42  C   UNL     1      46.718  73.947  44.416  0.00  0.00    +0.101 C 
ATOM     43  N   UNL     1      47.786  74.502  45.234  0.00  0.00    -0.132 NA
BRANCH  42  44
ATOM     44  C   UNL     1      46.915  72.469  44.179  0.00  0.00    +0.021 C 
BRANCH  44  45
ATOM     45  C   UNL     1      46.934  71.608  45.385  0.00  0.00    +0.022 C 
BRANCH  45  46
ATOM     46  C   UNL     1      47.051  70.145  45.118  0.00  0.00    +0.109 C 
ATOM     47  N   UNL     1      47.065  69.399  46.378  0.00  0.00    -0.131 NA
ENDBRANCH  45  46
ENDBRANCH  44  45
ENDBRANCH  42  44
ENDBRANCH  41  42
ENDBRANCH  39  41
ENDBRANCH  37  38
ENDBRANCH  14  37
TORSDOF 10
