REMARK  Name = Capsaicin
REMARK  9 active torsions:
REMARK  status: ('A' for Active; 'I' for Inactive)
REMARK    1  A    between atoms: C_2  and  C_4
REMARK    2  A    between atoms: C_5  and  C_6
REMARK    3  A    between atoms: C_6  and  C_7
REMARK    4  A    between atoms: C_7  and  C_8
REMARK    5  A    between atoms: C_8  and  C_9
REMARK    6  A    between atoms: C_9  and  C_10
REMARK    7  A    between atoms: N_12  and  C_13
REMARK    8  A    between atoms: C_13  and  C_14
REMARK    9  A    between atoms: C_16  and  O_21
REMARK                            x       y       z     vdW  Elec       q    Type
REMARK                         _______ _______ _______ _____ _____    ______ ____
ROOT
ATOM      1  C   UNL     1      45.300  81.345  38.879  0.00  0.00    +0.242 C 
ATOM      2  O   UNL     1      45.524  81.758  37.718  0.00  0.00    -0.273 OA
ATOM      3  N   UNL     1      44.486  80.203  39.065  0.00  0.00    -0.201 NA
ENDROOT
BRANCH   1   4
ATOM      4  C   UNL     1      45.909  82.089  39.990  0.00  0.00    +0.087 C 
BRANCH   4   5
ATOM      5  C   UNL     1      46.586  81.195  40.996  0.00  0.00    +0.010 C 
BRANCH   5   6
ATOM      6  C   UNL     1      48.047  81.628  41.063  0.00  0.00    +0.005 C 
BRANCH   6   7
ATOM      7  C   UNL     1      48.373  81.732  42.565  0.00  0.00    +0.026 C 
BRANCH   7   9
ATOM      8  C   UNL     1      50.138  83.162  43.466  0.00  0.00    -0.031 C 
ATOM      9  C   UNL     1      49.757  82.113  42.791  0.00  0.00    -0.031 C 
BRANCH   8  11
ATOM     10  C   UNL     1      52.374  83.598  42.546  0.00  0.00    +0.005 C 
ATOM     11  C   UNL     1      51.522  83.441  43.828  0.00  0.00    +0.022 C 
ATOM     12  C   UNL     1      51.611  84.783  44.535  0.00  0.00    +0.005 C 
ENDBRANCH   8  11
ENDBRANCH   7   9
ENDBRANCH   6   7
ENDBRANCH   5   6
ENDBRANCH   4   5
ENDBRANCH   1   4
BRANCH   3  13
ATOM     13  C   UNL     1      43.604  79.663  38.056  0.00  0.00    +0.142 C 
BRANCH  13  14
ATOM     14  C   UNL     1      42.959  78.402  38.402  0.00  0.00    +0.003 A 
ATOM     15  C   UNL     1      43.367  77.771  39.556  0.00  0.00    +0.038 A 
ATOM     16  C   UNL     1      42.834  76.578  40.002  0.00  0.00    +0.177 A 
ATOM     17  C   UNL     1      41.844  76.043  39.202  0.00  0.00    +0.229 A 
ATOM     18  C   UNL     1      41.418  76.655  38.043  0.00  0.00    +0.045 A 
ATOM     19  C   UNL     1      41.977  77.850  37.631  0.00  0.00    +0.001 A 
ATOM     20  O   UNL     1      41.284  74.841  39.621  0.00  0.00    -0.283 OA
BRANCH  16  21
ATOM     21  O   UNL     1      43.258  75.948  41.176  0.00  0.00    -0.468 OA
ATOM     22  C   UNL     1      44.573  76.259  41.617  0.00  0.00    +0.253 C 
ENDBRANCH  16  21
ENDBRANCH  13  14
ENDBRANCH   3  13
TORSDOF 9
