REMARK  Name = Carbenicillin
REMARK  5 active torsions:
REMARK  status: ('A' for Active; 'I' for Inactive)
REMARK    1  A    between atoms: CA_3  and  C_23
REMARK    2  A    between atoms: CA_7  and  N_10
REMARK    3  A    between atoms: C_11  and  C_13
REMARK    4  A    between atoms: C_13  and  C_14
REMARK    5  A    between atoms: C_13  and  C_20
REMARK                            x       y       z     vdW  Elec       q    Type
REMARK                         _______ _______ _______ _____ _____    ______ ____
ROOT
ATOM      1  C   UNL     1      48.062  85.030  42.385  0.00  0.00    +0.013 C 
ATOM      2  C   UNL     1      49.075  84.115  43.005  0.00  0.00    +0.068 C 
ATOM      3  CA  UNL     1      50.197  83.756  42.030  0.00  0.00    +0.189 C 
ATOM      4  N   UNL     1      49.746  82.642  41.244  0.00  0.00    -0.259 N 
ATOM      5  C   UNL     1      49.359  81.535  42.094  0.00  0.00    +0.153 C 
ATOM      6  S   UNL     1      48.365  82.460  43.326  0.00  0.00    -0.118 S 
ATOM      7  CA  UNL     1      48.571  80.949  40.953  0.00  0.00    +0.200 C 
ATOM      8  C   UNL     1      49.405  81.858  40.118  0.00  0.00    +0.249 C 
ATOM      9  O   UNL     1      49.642  81.833  38.874  0.00  0.00    -0.273 OA
ATOM     10  C   UNL     1      49.700  84.678  44.242  0.00  0.00    +0.013 C 
ENDROOT
BRANCH   7  11
ATOM     11  N   UNL     1      47.174  81.231  40.907  0.00  0.00    -0.194 NA
ATOM     12  C   UNL     1      46.194  80.242  40.688  0.00  0.00    +0.256 C 
ATOM     13  O   UNL     1      46.523  79.038  40.920  0.00  0.00    -0.272 OA
BRANCH  12  14
ATOM     14  C   UNL     1      44.805  80.562  40.198  0.00  0.00    +0.203 C 
BRANCH  14  15
ATOM     15  C   UNL     1      44.126  79.294  39.838  0.00  0.00    -0.003 A 
ATOM     16  C   UNL     1      44.177  78.180  40.649  0.00  0.00    -0.003 A 
ATOM     17  C   UNL     1      43.514  77.012  40.252  0.00  0.00    -0.000 A 
ATOM     18  C   UNL     1      42.810  76.928  39.082  0.00  0.00    -0.000 A 
ATOM     19  C   UNL     1      42.763  78.048  38.275  0.00  0.00    -0.000 A 
ATOM     20  C   UNL     1      43.414  79.197  38.662  0.00  0.00    -0.003 A 
ENDBRANCH  14  15
BRANCH  14  21
ATOM     21  C   UNL     1      44.978  81.387  38.985  0.00  0.00    +0.377 C 
ATOM     22  O   UNL     1      46.116  81.641  38.542  0.00  0.00    -0.245 OA
ATOM     23  O   UNL     1      43.867  81.881  38.336  0.00  0.00    -0.245 OA
ENDBRANCH  14  21
ENDBRANCH  12  14
ENDBRANCH   7  11
BRANCH   3  24
ATOM     24  C   UNL     1      51.455  83.406  42.689  0.00  0.00    +0.383 C 
ATOM     25  O   UNL     1      52.305  84.281  43.068  0.00  0.00    -0.244 OA
ATOM     26  OXT UNL     1      51.831  82.093  42.959  0.00  0.00    -0.244 OA
ENDBRANCH   3  24
TORSDOF 5
