REMARK  Name = Carbocisteine
REMARK  5 active torsions:
REMARK  status: ('A' for Active; 'I' for Inactive)
REMARK    1  A    between atoms: C_1  and  C_2
REMARK    2  A    between atoms: C_1  and  S_7
REMARK    3  A    between atoms: C_2  and  C_3
REMARK    4  A    between atoms: S_7  and  C_8
REMARK    5  A    between atoms: C_8  and  C_9
REMARK                            x       y       z     vdW  Elec       q    Type
REMARK                         _______ _______ _______ _____ _____    ______ ____
ROOT
ATOM      1  C   UNK     1      45.113  80.141  40.490  0.00  0.00    +0.089 C 
ENDROOT
BRANCH   1   2
ATOM      2  C   UNK     1      46.349  80.535  39.683  0.00  0.00    +0.205 C 
ATOM      3  N   UNK     1      47.481  80.369  40.585  0.00  0.00    -0.120 NA
BRANCH   2   4
ATOM      4  C   UNK     1      46.235  81.934  39.211  0.00  0.00    +0.383 C 
ATOM      5  O   UNK     1      45.342  82.223  38.376  0.00  0.00    -0.244 OA
ATOM      6  O   UNK     1      47.120  82.872  39.709  0.00  0.00    -0.244 OA
ENDBRANCH   2   4
ENDBRANCH   1   2
BRANCH   1   7
ATOM      7  S   UNK     1      43.904  79.494  39.321  0.00  0.00    -0.126 S 
BRANCH   7   8
ATOM      8  C   UNK     1      43.115  78.018  39.976  0.00  0.00    +0.172 C 
BRANCH   8   9
ATOM      9  C   UNK     1      42.111  77.544  38.991  0.00  0.00    +0.376 C 
ATOM     10  O   UNK     1      41.356  76.564  39.267  0.00  0.00    -0.245 OA
ATOM     11  O   UNK     1      41.969  78.154  37.745  0.00  0.00    -0.245 OA
ENDBRANCH   8   9
ENDBRANCH   7   8
ENDBRANCH   1   7
TORSDOF 5
