REMARK  Name = Carbidopa
REMARK  4 active torsions:
REMARK  status: ('A' for Active; 'I' for Inactive)
REMARK    1  A    between atoms: C_2  and  C_3
REMARK    2  A    between atoms: C_2  and  C_12
REMARK    3  A    between atoms: C_2  and  N_15
REMARK    4  A    between atoms: C_3  and  C_4
REMARK                            x       y       z     vdW  Elec       q    Type
REMARK                         _______ _______ _______ _____ _____    ______ ____
ROOT
ATOM      1  C   UNL     1      48.880  82.423  41.224  0.00  0.00    +0.055 C 
ENDROOT
BRANCH   1   2
ATOM      2  C   UNL     1      47.715  81.808  40.631  0.00  0.00    -0.017 A 
ATOM      3  C   UNL     1      47.065  82.372  39.560  0.00  0.00    +0.041 A 
ATOM      4  C   UNL     1      45.942  81.787  38.983  0.00  0.00    +0.234 A 
ATOM      5  C   UNL     1      45.465  80.607  39.498  0.00  0.00    +0.234 A 
ATOM      6  C   UNL     1      46.099  80.009  40.582  0.00  0.00    +0.045 A 
ATOM      7  C   UNL     1      47.228  80.622  41.142  0.00  0.00    -0.001 A 
ATOM      8  O   UNL     1      44.340  79.968  38.964  0.00  0.00    -0.283 OA
ATOM      9  O   UNL     1      45.308  82.379  37.904  0.00  0.00    -0.283 OA
ENDBRANCH   1   2
BRANCH   1  11
ATOM     10  C   UNL     1      48.916  81.596  43.584  0.00  0.00    +0.031 C 
ATOM     11  C   UNL     1      49.636  81.627  42.230  0.00  0.00    +0.175 C 
BRANCH  11  12
ATOM     12  C   UNL     1      51.023  82.049  42.429  0.00  0.00    +0.380 C 
ATOM     13  O   UNL     1      51.305  83.146  42.969  0.00  0.00    -0.244 OA
ATOM     14  O   UNL     1      52.081  81.256  42.028  0.00  0.00    -0.244 OA
ENDBRANCH  11  12
BRANCH  11  15
ATOM     15  N   UNL     1      49.650  80.248  41.774  0.00  0.00    -0.104 NA
ATOM     16  N   UNL     1      50.853  79.606  41.877  0.00  0.00    -0.020 NA
ENDBRANCH  11  15
ENDBRANCH   1  11
TORSDOF 4
