REMARK  Name = Carbetocin
REMARK  18 active torsions:
REMARK  status: ('A' for Active; 'I' for Inactive)
REMARK    1  A    between atoms: C_2  and  C_3
REMARK    2  A    between atoms: C_3  and  C_5
REMARK    3  A    between atoms: C_9  and  C_65
REMARK    4  A    between atoms: C_13  and  C_61
REMARK    5  A    between atoms: C_17  and  C_39
REMARK    6  A    between atoms: C_26  and  C_30
REMARK    7  A    between atoms: C_30  and  C_31
REMARK    8  A    between atoms: C_34  and  O_37
REMARK    9  A    between atoms: C_45  and  C_46
REMARK   10  A    between atoms: N_48  and  C_49
REMARK   11  A    between atoms: C_49  and  C_50
REMARK   12  A    between atoms: C_49  and  C_54
REMARK   13  A    between atoms: C_50  and  C_51
REMARK   14  A    between atoms: N_56  and  C_57
REMARK   15  A    between atoms: C_57  and  C_58
REMARK   16  A    between atoms: C_61  and  C_62
REMARK   17  A    between atoms: C_65  and  C_66
REMARK   18  A    between atoms: C_66  and  C_67
REMARK                            x       y       z     vdW  Elec       q    Type
REMARK                         _______ _______ _______ _____ _____    ______ ____
ROOT
ATOM      1  C   UNL     1      45.639  80.825  40.897  0.00  0.00    +0.173 C 
ATOM      2  C   UNL     1      46.429  80.016  40.000  0.00  0.00    +0.262 C 
ATOM      3  O   UNL     1      45.805  79.385  39.097  0.00  0.00    -0.271 OA
ATOM      4  N   UNL     1      47.833  79.844  40.017  0.00  0.00    -0.196 NA
ATOM      5  C   UNL     1      48.764  80.111  41.072  0.00  0.00    +0.173 C 
ATOM      6  C   UNL     1      49.720  78.982  41.208  0.00  0.00    +0.262 C 
ATOM      7  O   UNL     1      49.609  78.047  40.337  0.00  0.00    -0.271 OA
ATOM      8  N   UNL     1      50.720  78.830  42.176  0.00  0.00    -0.196 NA
ATOM      9  C   UNL     1      50.809  79.408  43.473  0.00  0.00    +0.182 C 
ATOM     10  C   UNL     1      50.953  78.416  44.586  0.00  0.00    +0.262 C 
ATOM     11  O   UNL     1      50.594  78.844  45.732  0.00  0.00    -0.271 OA
ATOM     12  N   UNL     1      51.434  77.103  44.489  0.00  0.00    -0.195 NA
ATOM     13  C   UNL     1      50.897  75.967  43.792  0.00  0.00    +0.182 C 
ATOM     14  C   UNL     1      49.386  75.989  43.657  0.00  0.00    +0.089 C 
ATOM     15  S   UNL     1      48.874  74.481  42.801  0.00  0.00    -0.138 S 
ATOM     16  C   UNL     1      47.063  74.313  42.819  0.00  0.00    +0.058 C 
ATOM     17  C   UNL     1      46.538  74.810  41.498  0.00  0.00    +0.021 C 
ATOM     18  C   UNL     1      45.667  76.047  41.688  0.00  0.00    +0.088 C 
ATOM     19  C   UNL     1      45.220  76.478  40.326  0.00  0.00    +0.242 C 
ATOM     20  O   UNL     1      46.089  76.334  39.380  0.00  0.00    -0.273 OA
ATOM     21  N   UNL     1      43.961  77.010  40.021  0.00  0.00    -0.197 NA
ATOM     22  C   UNL     1      43.245  78.094  40.587  0.00  0.00    +0.177 C 
ATOM     23  C   UNL     1      43.953  78.951  41.554  0.00  0.00    +0.262 C 
ATOM     24  O   UNL     1      44.097  78.345  42.712  0.00  0.00    -0.271 OA
ATOM     25  N   UNL     1      44.476  80.215  41.504  0.00  0.00    -0.196 NA
ENDROOT
BRANCH  13  26
ATOM     26  C   UNL     1      51.216  74.673  44.440  0.00  0.00    +0.247 C 
ATOM     27  O   UNL     1      50.239  73.962  44.900  0.00  0.00    -0.273 OA
ATOM     28  N   UNL     1      52.511  74.108  44.622  0.00  0.00    -0.272 N 
ATOM     29  C   UNL     1      53.551  74.003  43.596  0.00  0.00    +0.094 C 
ATOM     30  C   UNL     1      54.847  74.144  44.397  0.00  0.00    +0.024 C 
ATOM     31  C   UNL     1      54.521  73.369  45.615  0.00  0.00    +0.031 C 
ATOM     32  C   UNL     1      53.039  73.492  45.803  0.00  0.00    +0.154 C 
BRANCH  32  33
ATOM     33  C   UNL     1      52.832  74.317  47.033  0.00  0.00    +0.260 C 
ATOM     34  O   UNL     1      51.883  75.123  47.133  0.00  0.00    -0.272 OA
ATOM     35  N   UNL     1      53.768  74.141  48.094  0.00  0.00    -0.196 NA
BRANCH  35  36
ATOM     36  C   UNL     1      53.396  74.217  49.504  0.00  0.00    +0.173 C 
BRANCH  36  37
ATOM     37  C   UNL     1      53.378  72.835  50.012  0.00  0.00    +0.262 C 
ATOM     38  O   UNL     1      54.308  72.045  49.633  0.00  0.00    -0.271 OA
ATOM     39  N   UNL     1      52.432  72.268  50.888  0.00  0.00    -0.194 NA
BRANCH  39  40
ATOM     40  C   UNL     1      52.497  70.862  51.296  0.00  0.00    +0.203 C 
BRANCH  40  41
ATOM     41  C   UNL     1      52.685  70.793  52.748  0.00  0.00    +0.283 C 
ATOM     42  O   UNL     1      52.853  71.840  53.430  0.00  0.00    -0.270 OA
ATOM     43  N   UNL     1      52.677  69.528  53.377  0.00  0.00    -0.086 NA
ENDBRANCH  40  41
ENDBRANCH  39  40
ENDBRANCH  36  37
BRANCH  36  44
ATOM     44  C   UNL     1      54.482  75.055  50.141  0.00  0.00    +0.031 C 
BRANCH  44  45
ATOM     45  C   UNL     1      54.137  76.482  50.367  0.00  0.00    +0.002 C 
ATOM     46  C   UNL     1      55.362  77.172  51.015  0.00  0.00    +0.000 C 
ATOM     47  C   UNL     1      53.857  77.229  49.091  0.00  0.00    +0.000 C 
ENDBRANCH  44  45
ENDBRANCH  36  44
ENDBRANCH  35  36
ENDBRANCH  32  33
ENDBRANCH  13  26
BRANCH   1  48
ATOM     48  C   UNL     1      45.249  82.133  40.301  0.00  0.00    +0.029 C 
ATOM     49  C   UNL     1      44.555  82.007  38.962  0.00  0.00    +0.002 C 
BRANCH  48  51
ATOM     50  C   UNL     1      44.441  82.795  42.612  0.00  0.00    +0.000 C 
ATOM     51  C   UNL     1      44.635  83.150  41.183  0.00  0.00    +0.002 C 
ENDBRANCH  48  51
ENDBRANCH   1  48
BRANCH   9  52
ATOM     52  C   UNL     1      52.154  80.173  43.513  0.00  0.00    +0.120 C 
BRANCH  52  53
ATOM     53  C   UNL     1      52.727  80.290  42.161  0.00  0.00    +0.263 C 
ATOM     54  O   UNL     1      52.075  80.091  41.102  0.00  0.00    -0.272 OA
ATOM     55  N   UNL     1      54.094  80.650  42.020  0.00  0.00    -0.088 NA
ENDBRANCH  52  53
ENDBRANCH   9  52
BRANCH  22  56
ATOM     56  C   UNL     1      42.426  78.876  39.552  0.00  0.00    +0.057 C 
BRANCH  56  57
ATOM     57  C   UNL     1      41.546  77.934  38.800  0.00  0.00    -0.020 A 
ATOM     58  C   UNL     1      41.643  77.732  37.449  0.00  0.00    -0.001 A 
ATOM     59  C   UNL     1      40.822  76.849  36.749  0.00  0.00    +0.037 A 
ATOM     60  C   UNL     1      39.861  76.138  37.432  0.00  0.00    +0.139 A 
ATOM     61  C   UNL     1      39.754  76.331  38.790  0.00  0.00    +0.037 A 
ATOM     62  C   UNL     1      40.565  77.204  39.482  0.00  0.00    -0.001 A 
BRANCH  60  63
ATOM     63  O   UNL     1      39.036  75.252  36.730  0.00  0.00    -0.471 OA
ATOM     64  C   UNL     1      38.895  73.938  37.236  0.00  0.00    +0.252 C 
ENDBRANCH  60  63
ENDBRANCH  56  57
ENDBRANCH  22  56
BRANCH   5  65
ATOM     65  C   UNL     1      49.592  81.350  40.857  0.00  0.00    +0.041 C 
BRANCH  65  66
ATOM     66  C   UNL     1      48.848  82.618  41.172  0.00  0.00    +0.091 C 
BRANCH  66  67
ATOM     67  C   UNL     1      48.219  82.447  42.519  0.00  0.00    +0.261 C 
ATOM     68  O   UNL     1      48.337  81.382  43.170  0.00  0.00    -0.272 OA
ATOM     69  N   UNL     1      47.453  83.520  43.105  0.00  0.00    -0.088 NA
ENDBRANCH  66  67
ENDBRANCH  65  66
ENDBRANCH   5  65
TORSDOF 18
