REMARK  Name = Carboprost_Tromethamine
REMARK  15 active torsions:
REMARK  status: ('A' for Active; 'I' for Inactive)
REMARK    1  A    between atoms: C_2  and  C_3
REMARK    2  A    between atoms: C_3  and  C_4
REMARK    3  A    between atoms: C_4  and  C_5
REMARK    4  A    between atoms: C_5  and  C_6
REMARK    5  A    between atoms: C_6  and  C_8
REMARK    6  A    between atoms: C_9  and  C_10
REMARK    7  A    between atoms: C_14  and  C_15
REMARK    8  A    between atoms: C_15  and  C_16
REMARK    9  A    between atoms: C_17  and  C_18
REMARK   10  A    between atoms: C_18  and  C_19
REMARK   11  A    between atoms: C_19  and  C_20
REMARK   12  A    between atoms: C_20  and  C_21
REMARK   13  A    between atoms: C_27  and  C_28
REMARK   14  A    between atoms: C_28  and  C_29
REMARK   15  A    between atoms: C_28  and  C_31
REMARK                            x       y       z     vdW  Elec       q    Type
REMARK                         _______ _______ _______ _____ _____    ______ ____
ROOT
ATOM      1  C   UNL     1      45.662  79.877  40.512  0.00  0.00    +0.055 C 
ATOM      2  C   UNL     1      45.674  80.346  39.111  0.00  0.00    +0.159 C 
ATOM      3  C   UNL     1      44.670  79.290  38.523  0.00  0.00    +0.066 C 
ATOM      4  C   UNL     1      45.147  78.020  39.193  0.00  0.00    +0.155 C 
ATOM      5  C   UNL     1      46.117  78.406  40.249  0.00  0.00    +0.041 C 
ATOM      6  O   UNL     1      45.763  77.260  38.177  0.00  0.00    -0.223 OA
ATOM      7  O   UNL     1      45.130  81.602  38.877  0.00  0.00    -0.223 OA
ENDROOT
BRANCH   1   9
ATOM      8  C   UNL     1      47.166  81.468  41.729  0.00  0.00    -0.001 C 
ATOM      9  C   UNL     1      46.391  80.470  41.581  0.00  0.00    -0.026 C 
BRANCH   8  10
ATOM     10  C   UNL     1      47.691  82.527  40.792  0.00  0.00    +0.145 C 
ATOM     11  C   UNL     1      46.520  83.217  40.129  0.00  0.00    +0.038 C 
ATOM     12  O   UNL     1      48.581  81.957  39.956  0.00  0.00    -0.221 OA
BRANCH  10  13
ATOM     13  C   UNL     1      48.356  83.554  41.658  0.00  0.00    +0.035 C 
BRANCH  13  14
ATOM     14  C   UNL     1      49.384  83.223  42.630  0.00  0.00    +0.003 C 
BRANCH  14  15
ATOM     15  C   UNL     1      50.043  84.155  43.540  0.00  0.00    +0.000 C 
BRANCH  15  17
ATOM     16  C   UNL     1      52.058  84.962  44.747  0.00  0.00    +0.000 C 
ATOM     17  C   UNL     1      51.128  83.756  44.443  0.00  0.00    +0.000 C 
ENDBRANCH  15  17
ENDBRANCH  14  15
ENDBRANCH  13  14
ENDBRANCH  10  13
ENDBRANCH   8  10
ENDBRANCH   1   9
BRANCH   5  18
ATOM     18  C   UNL     1      46.025  77.681  41.539  0.00  0.00    +0.029 C 
BRANCH  18  19
ATOM     19  C   UNL     1      44.694  77.627  42.160  0.00  0.00    -0.031 C 
ATOM     20  C   UNL     1      44.104  76.466  42.485  0.00  0.00    -0.031 C 
BRANCH  20  21
ATOM     21  C   UNL     1      42.702  76.423  42.982  0.00  0.00    +0.026 C 
BRANCH  21  22
ATOM     22  C   UNL     1      42.051  75.102  42.774  0.00  0.00    +0.016 C 
BRANCH  22  23
ATOM     23  C   UNL     1      42.949  73.998  43.252  0.00  0.00    +0.114 C 
BRANCH  23  24
ATOM     24  C   UNL     1      42.352  72.653  43.201  0.00  0.00    +0.365 C 
ATOM     25  O   UNL     1      42.959  71.601  43.441  0.00  0.00    -0.246 OA
ATOM     26  O   UNL     1      40.988  72.504  42.858  0.00  0.00    -0.246 OA
ENDBRANCH  23  24
ENDBRANCH  22  23
ENDBRANCH  21  22
ENDBRANCH  20  21
ENDBRANCH  18  19
ENDBRANCH   5  18
TORSDOF 12
REMARK  Name = Carboprost_Tromethamine
REMARK  15 active torsions:
REMARK  status: ('A' for Active; 'I' for Inactive)
REMARK    1  A    between atoms: C_2  and  C_3
REMARK    2  A    between atoms: C_3  and  C_4
REMARK    3  A    between atoms: C_4  and  C_5
REMARK    4  A    between atoms: C_5  and  C_6
REMARK    5  A    between atoms: C_6  and  C_8
REMARK    6  A    between atoms: C_9  and  C_10
REMARK    7  A    between atoms: C_14  and  C_15
REMARK    8  A    between atoms: C_15  and  C_16
REMARK    9  A    between atoms: C_17  and  C_18
REMARK   10  A    between atoms: C_18  and  C_19
REMARK   11  A    between atoms: C_19  and  C_20
REMARK   12  A    between atoms: C_20  and  C_21
REMARK   13  A    between atoms: C_27  and  C_28
REMARK   14  A    between atoms: C_28  and  C_29
REMARK   15  A    between atoms: C_28  and  C_31
REMARK                            x       y       z     vdW  Elec       q    Type
REMARK                         _______ _______ _______ _____ _____    ______ ____
ROOT
ATOM      1  C   UNL     1      45.605  80.205  40.700  0.00  0.00    +0.168 C 
ATOM      2  N   UNL     1      44.539  80.026  39.765  0.00  0.00    -0.126 NA
ENDROOT
BRANCH   1   3
ATOM      3  C   UNL     1      46.948  80.035  40.017  0.00  0.00    +0.205 C 
ATOM      4  O   UNL     1      47.119  80.925  38.970  0.00  0.00    -0.219 OA
ENDBRANCH   1   3
BRANCH   1   5
ATOM      5  C   UNL     1      45.561  81.559  41.385  0.00  0.00    +0.205 C 
ATOM      6  O   UNL     1      44.519  82.339  40.922  0.00  0.00    -0.219 OA
ENDBRANCH   1   5
BRANCH   1   7
ATOM      7  C   UNL     1      45.499  79.121  41.751  0.00  0.00    +0.205 C 
ATOM      8  O   UNL     1      44.333  78.383  41.560  0.00  0.00    -0.219 OA
ENDBRANCH   1   7
TORSDOF 3
