REMARK  Name = Carbetapentane
REMARK  11 active torsions:
REMARK  status: ('A' for Active; 'I' for Inactive)
REMARK    1  A    between atoms: C_2  and  N_3
REMARK    2  A    between atoms: N_3  and  C_4
REMARK    3  A    between atoms: N_3  and  C_6
REMARK    4  A    between atoms: C_6  and  C_7
REMARK    5  A    between atoms: C_7  and  O_8
REMARK    6  A    between atoms: O_8  and  C_9
REMARK    7  A    between atoms: C_9  and  C_10
REMARK    8  A    between atoms: C_10  and  O_11
REMARK    9  A    between atoms: O_11  and  C_12
REMARK   10  A    between atoms: C_12  and  C_14
REMARK   11  A    between atoms: C_14  and  C_19
REMARK                            x       y       z     vdW  Elec       q    Type
REMARK                         _______ _______ _______ _____ _____    ______ ____
ROOT
ATOM      1  C   UNL     1      47.891  80.756  42.192  0.00  0.00    +0.320 C 
ATOM      2  O   UNL     1      47.831  80.216  43.319  0.00  0.00    -0.250 OA
ENDROOT
BRANCH   1   3
ATOM      3  C   UNL     1      49.011  81.704  41.938  0.00  0.00    +0.108 C 
ATOM      4  C   UNL     1      50.309  81.036  42.327  0.00  0.00    +0.015 C 
ATOM      5  C   UNL     1      51.307  81.896  41.561  0.00  0.00    +0.001 C 
ATOM      6  C   UNL     1      50.652  81.934  40.177  0.00  0.00    +0.001 C 
ATOM      7  C   UNL     1      49.175  81.842  40.459  0.00  0.00    +0.015 C 
BRANCH   3   8
ATOM      8  C   UNL     1      48.856  82.982  42.653  0.00  0.00    -0.013 A 
ATOM      9  C   UNL     1      47.588  83.573  42.679  0.00  0.00    -0.004 A 
ATOM     10  C   UNL     1      47.421  84.768  43.345  0.00  0.00    -0.000 A 
ATOM     11  C   UNL     1      48.447  85.426  43.997  0.00  0.00    -0.000 A 
ATOM     12  C   UNL     1      49.689  84.828  43.959  0.00  0.00    -0.000 A 
ATOM     13  C   UNL     1      49.886  83.629  43.298  0.00  0.00    -0.004 A 
ENDBRANCH   3   8
ENDBRANCH   1   3
BRANCH   1  14
ATOM     14  O   UNL     1      46.939  80.459  41.252  0.00  0.00    -0.446 OA
BRANCH  14  15
ATOM     15  C   UNL     1      45.931  79.515  41.518  0.00  0.00    +0.240 C 
BRANCH  15  16
ATOM     16  C   UNL     1      44.842  79.474  40.505  0.00  0.00    +0.189 C 
BRANCH  16  17
ATOM     17  O   UNL     1      44.078  78.333  40.521  0.00  0.00    -0.348 OA
BRANCH  17  18
ATOM     18  C   UNL     1      42.941  78.373  39.751  0.00  0.00    +0.160 C 
BRANCH  18  19
ATOM     19  C   UNL     1      42.249  77.045  39.617  0.00  0.00    +0.105 C 
BRANCH  19  20
ATOM     20  N   UNL     1      41.106  77.105  38.802  0.00  0.00    -0.271 NA
BRANCH  20  22
ATOM     21  C   UNL     1      41.401  74.893  37.950  0.00  0.00    +0.019 C 
ATOM     22  C   UNL     1      40.442  75.814  38.660  0.00  0.00    +0.072 C 
ENDBRANCH  20  22
BRANCH  20  23
ATOM     23  C   UNL     1      41.111  77.864  37.613  0.00  0.00    +0.072 C 
ATOM     24  C   UNL     1      39.989  77.566  36.654  0.00  0.00    +0.019 C 
ENDBRANCH  20  23
ENDBRANCH  19  20
ENDBRANCH  18  19
ENDBRANCH  17  18
ENDBRANCH  16  17
ENDBRANCH  15  16
ENDBRANCH  14  15
ENDBRANCH   1  14
TORSDOF 11
