REMARK  Name = Careram
REMARK  5 active torsions:
REMARK  status: ('A' for Active; 'I' for Inactive)
REMARK    1  A    between atoms: S_2  and  N_5
REMARK    2  A    between atoms: N_5  and  C_6
REMARK    3  A    between atoms: C_7  and  O_20
REMARK    4  A    between atoms: C_14  and  N_17
REMARK    5  A    between atoms: O_20  and  C_21
REMARK                            x       y       z     vdW  Elec       q    Type
REMARK                         _______ _______ _______ _____ _____    ______ ____
ROOT
ATOM      1  C   UNL     1      47.476  80.995  41.614  0.00  0.00    +0.128 A 
ATOM      2  C   UNL     1      46.832  79.845  41.979  0.00  0.00    +0.162 A 
ATOM      3  C   UNL     1      45.767  79.406  41.159  0.00  0.00    +0.045 A 
ATOM      4  C   UNL     1      45.368  80.085  40.033  0.00  0.00    +0.078 A 
ATOM      5  C   UNL     1      46.038  81.235  39.701  0.00  0.00    +0.150 A 
ATOM      6  C   UNL     1      47.093  81.711  40.472  0.00  0.00    +0.059 A 
ATOM      7  O   UNL     1      45.640  81.861  38.628  0.00  0.00    -0.449 OA
ATOM      8  C   UNL     1      44.659  81.453  37.877  0.00  0.00    +0.199 A 
ATOM      9  C   UNL     1      43.912  80.283  38.140  0.00  0.00    +0.150 A 
ATOM     10  C   UNL     1      44.306  79.609  39.254  0.00  0.00    +0.217 A 
ATOM     11  O   UNL     1      43.770  78.572  39.632  0.00  0.00    -0.285 OA
ENDROOT
BRANCH   9  12
ATOM     12  N   UNL     1      42.873  79.953  37.241  0.00  0.00    -0.165 NA
ATOM     13  C   UNL     1      42.174  78.749  37.200  0.00  0.00    +0.325 C 
ATOM     14  O   UNL     1      41.252  78.506  36.413  0.00  0.00    -0.263 OA
ENDBRANCH   9  12
BRANCH   1  15
ATOM     15  N   UNL     1      48.570  81.547  42.316  0.00  0.00    -0.097 NA
BRANCH  15  17
ATOM     16  C   UNL     1      50.376  79.958  40.696  0.00  0.00    +0.202 C 
ATOM     17  S   UNL     1      50.216  81.270  41.888  0.00  0.00    +0.075 S 
ATOM     18  O   UNL     1      51.040  80.972  43.106  0.00  0.00    -0.153 OA
ATOM     19  O   UNL     1      50.760  82.559  41.318  0.00  0.00    -0.153 OA
ENDBRANCH  15  17
ENDBRANCH   1  15
BRANCH   2  20
ATOM     20  O   UNL     1      47.120  79.080  43.060  0.00  0.00    -0.452 OA
BRANCH  20  21
ATOM     21  C   UNL     1      46.628  77.915  43.535  0.00  0.00    +0.145 A 
ATOM     22  C   UNL     1      46.645  76.767  42.716  0.00  0.00    +0.037 A 
ATOM     23  C   UNL     1      46.158  75.582  43.177  0.00  0.00    +0.003 A 
ATOM     24  C   UNL     1      45.633  75.434  44.432  0.00  0.00    +0.000 A 
ATOM     25  C   UNL     1      45.600  76.540  45.265  0.00  0.00    +0.003 A 
ATOM     26  C   UNL     1      46.098  77.724  44.775  0.00  0.00    +0.037 A 
ENDBRANCH  20  21
ENDBRANCH   2  20
TORSDOF 5
