REMARK  Name = Carfilzomib
REMARK  20 active torsions:
REMARK  status: ('A' for Active; 'I' for Inactive)
REMARK    1  A    between atoms: C_2  and  C_4
REMARK    2  A    between atoms: C_4  and  C_5
REMARK    3  A    between atoms: C_5  and  C_6
REMARK    4  A    between atoms: C_5  and  N_12
REMARK    5  A    between atoms: C_6  and  C_8
REMARK    6  A    between atoms: C_13  and  C_15
REMARK    7  A    between atoms: C_15  and  C_16
REMARK    8  A    between atoms: C_15  and  N_23
REMARK    9  A    between atoms: C_16  and  C_17
REMARK   10  A    between atoms: C_24  and  C_26
REMARK   11  A    between atoms: C_26  and  C_27
REMARK   12  A    between atoms: C_26  and  N_31
REMARK   13  A    between atoms: C_27  and  C_28
REMARK   14  A    between atoms: C_32  and  C_34
REMARK   15  A    between atoms: C_34  and  C_35
REMARK   16  A    between atoms: C_34  and  N_43
REMARK   17  A    between atoms: C_35  and  C_36
REMARK   18  A    between atoms: C_36  and  C_37
REMARK   19  A    between atoms: C_44  and  C_46
REMARK   20  A    between atoms: C_46  and  N_47
REMARK                            x       y       z     vdW  Elec       q    Type
REMARK                         _______ _______ _______ _____ _____    ______ ____
ROOT
ATOM      1  C   UNL     1      45.886  77.896  45.808  0.00  0.00    +0.173 C 
ENDROOT
BRANCH   1   3
ATOM      2  N   UNL     1      47.808  79.528  45.734  0.00  0.00    -0.196 NA
ATOM      3  C   UNL     1      47.243  78.345  46.239  0.00  0.00    +0.262 C 
ATOM      4  O   UNL     1      47.914  77.654  47.073  0.00  0.00    -0.271 OA
BRANCH   2   5
ATOM      5  C   UNL     1      48.772  80.297  46.511  0.00  0.00    +0.177 C 
BRANCH   5   7
ATOM      6  N   UNL     1      50.517  79.740  48.285  0.00  0.00    -0.198 NA
ATOM      7  C   UNL     1      49.540  79.333  47.331  0.00  0.00    +0.262 C 
ATOM      8  O   UNL     1      49.337  78.122  47.201  0.00  0.00    -0.271 OA
BRANCH   6   9
ATOM      9  C   UNL     1      51.277  78.760  49.054  0.00  0.00    +0.155 C 
BRANCH   9  10
ATOM     10  C   UNL     1      50.833  78.803  50.469  0.00  0.00    +0.197 C 
ATOM     11  O   UNL     1      50.293  79.900  50.800  0.00  0.00    -0.292 OA
BRANCH  10  12
ATOM     12  C   UNL     1      50.918  77.794  51.516  0.00  0.00    +0.172 C 
ATOM     13  C   UNL     1      50.522  78.190  52.928  0.00  0.00    +0.177 C 
ATOM     14  O   UNL     1      51.880  78.157  52.607  0.00  0.00    -0.346 OA
ATOM     15  C   UNL     1      50.943  76.322  51.280  0.00  0.00    +0.040 C 
ENDBRANCH  10  12
ENDBRANCH   9  10
BRANCH   9  16
ATOM     16  C   UNL     1      52.733  78.859  48.928  0.00  0.00    +0.029 C 
BRANCH  16  18
ATOM     17  C   UNL     1      54.852  78.494  47.650  0.00  0.00    +0.000 C 
ATOM     18  C   UNL     1      53.383  78.188  47.760  0.00  0.00    +0.002 C 
ATOM     19  C   UNL     1      53.003  76.767  47.524  0.00  0.00    +0.000 C 
ENDBRANCH  16  18
ENDBRANCH   9  16
ENDBRANCH   6   9
ENDBRANCH   5   7
BRANCH   5  20
ATOM     20  C   UNL     1      49.645  81.179  45.688  0.00  0.00    +0.057 C 
BRANCH  20  21
ATOM     21  C   UNL     1      49.771  82.567  46.124  0.00  0.00    -0.020 A 
ATOM     22  C   UNL     1      49.193  83.004  47.283  0.00  0.00    -0.004 A 
ATOM     23  C   UNL     1      49.287  84.298  47.728  0.00  0.00    -0.000 A 
ATOM     24  C   UNL     1      50.019  85.168  46.920  0.00  0.00    -0.000 A 
ATOM     25  C   UNL     1      50.614  84.751  45.743  0.00  0.00    -0.000 A 
ATOM     26  C   UNL     1      50.502  83.442  45.322  0.00  0.00    -0.004 A 
ENDBRANCH  20  21
ENDBRANCH   5  20
ENDBRANCH   2   5
ENDBRANCH   1   3
BRANCH   1  27
ATOM     27  N   UNL     1      45.902  77.853  44.385  0.00  0.00    -0.196 NA
ATOM     28  C   UNL     1      44.732  77.936  43.549  0.00  0.00    +0.262 C 
ATOM     29  O   UNL     1      43.631  78.118  44.112  0.00  0.00    -0.271 OA
BRANCH  28  30
ATOM     30  C   UNL     1      44.827  77.821  42.101  0.00  0.00    +0.173 C 
BRANCH  30  31
ATOM     31  N   UNL     1      44.749  79.171  41.505  0.00  0.00    -0.197 NA
ATOM     32  C   UNL     1      45.897  79.679  40.897  0.00  0.00    +0.258 C 
ATOM     33  O   UNL     1      47.006  79.004  40.949  0.00  0.00    -0.272 OA
BRANCH  32  34
ATOM     34  C   UNL     1      45.960  80.950  40.181  0.00  0.00    +0.160 C 
BRANCH  34  35
ATOM     35  N   UNL     1      47.188  81.291  39.549  0.00  0.00    -0.261 NA
ATOM     36  C   UNL     1      48.210  81.612  40.492  0.00  0.00    +0.105 C 
ATOM     37  C   UNL     1      48.785  83.014  40.243  0.00  0.00    +0.159 C 
ATOM     38  O   UNL     1      47.789  83.972  40.253  0.00  0.00    -0.351 OA
ATOM     39  C   UNL     1      46.714  83.659  39.426  0.00  0.00    +0.159 C 
ATOM     40  C   UNL     1      46.931  82.406  38.624  0.00  0.00    +0.105 C 
ENDBRANCH  34  35
ENDBRANCH  32  34
ENDBRANCH  30  31
BRANCH  30  41
ATOM     41  C   UNL     1      43.618  77.042  41.581  0.00  0.00    +0.036 C 
BRANCH  41  42
ATOM     42  C   UNL     1      43.821  76.740  40.125  0.00  0.00    +0.029 C 
BRANCH  42  43
ATOM     43  C   UNL     1      42.555  76.081  39.620  0.00  0.00    -0.022 A 
ATOM     44  C   UNL     1      41.574  75.772  40.532  0.00  0.00    -0.004 A 
ATOM     45  C   UNL     1      40.433  75.159  40.077  0.00  0.00    -0.000 A 
ATOM     46  C   UNL     1      40.276  74.863  38.747  0.00  0.00    -0.000 A 
ATOM     47  C   UNL     1      41.276  75.186  37.854  0.00  0.00    -0.000 A 
ATOM     48  C   UNL     1      42.451  75.811  38.284  0.00  0.00    -0.004 A 
ENDBRANCH  42  43
ENDBRANCH  41  42
ENDBRANCH  30  41
ENDBRANCH  28  30
ENDBRANCH   1  27
BRANCH   1  49
ATOM     49  C   UNL     1      45.364  76.721  46.519  0.00  0.00    +0.031 C 
BRANCH  49  50
ATOM     50  C   UNL     1      45.387  76.731  48.016  0.00  0.00    +0.002 C 
ATOM     51  C   UNL     1      44.185  77.629  48.424  0.00  0.00    +0.000 C 
ATOM     52  C   UNL     1      45.023  75.350  48.546  0.00  0.00    +0.000 C 
ENDBRANCH  49  50
ENDBRANCH   1  49
TORSDOF 20
