REMARK  Name = Cariprazine
REMARK  5 active torsions:
REMARK  status: ('A' for Active; 'I' for Inactive)
REMARK    1  A    between atoms: N_6  and  C_7
REMARK    2  A    between atoms: C_10  and  C_13
REMARK    3  A    between atoms: C_13  and  C_14
REMARK    4  A    between atoms: C_14  and  N_15
REMARK    5  A    between atoms: N_18  and  C_21
REMARK                            x       y       z     vdW  Elec       q    Type
REMARK                         _______ _______ _______ _____ _____    ______ ____
ROOT
ATOM      1  C   UNL     1      44.928  80.419  39.237  0.00  0.00    +0.072 C 
ENDROOT
BRANCH   1   2
ATOM      2  N   UNL     1      46.241  80.627  39.790  0.00  0.00    -0.270 NA
ATOM      3  C   UNL     1      46.430  80.230  41.100  0.00  0.00    +0.094 C 
ATOM      4  C   UNL     1      47.073  81.177  42.068  0.00  0.00    +0.108 C 
ATOM      5  N   UNL     1      47.564  82.357  41.428  0.00  0.00    -0.304 N 
ATOM      6  C   UNL     1      46.818  82.890  40.327  0.00  0.00    +0.108 C 
ATOM      7  C   UNL     1      46.851  81.783  39.277  0.00  0.00    +0.094 C 
BRANCH   5   8
ATOM      8  C   UNL     1      48.750  82.977  41.873  0.00  0.00    +0.059 A 
ATOM      9  C   UNL     1      48.745  84.109  42.663  0.00  0.00    +0.081 A 
ATOM     10  C   UNL     1      49.926  84.680  43.077  0.00  0.00    +0.069 A 
ATOM     11  C   UNL     1      51.155  84.156  42.728  0.00  0.00    +0.012 A 
ATOM     12  C   UNL     1      51.181  83.015  41.932  0.00  0.00    +0.002 A 
ATOM     13  C   UNL     1      50.005  82.464  41.532  0.00  0.00    +0.015 A 
ATOM     14 CL   UNL     1      49.895  86.125  44.079  0.00  0.00    -0.081 Cl
ATOM     15 CL   UNL     1      47.186  84.805  43.131  0.00  0.00    -0.080 Cl
ENDBRANCH   5   8
ENDBRANCH   1   2
BRANCH   1  16
ATOM     16  C   UNL     1      44.635  78.960  39.013  0.00  0.00    +0.017 C 
BRANCH  16  20
ATOM     17  C   UNL     1      40.988  76.825  38.729  0.00  0.00    +0.097 C 
ATOM     18  C   UNL     1      42.302  76.386  39.307  0.00  0.00    +0.022 C 
ATOM     19  C   UNL     1      42.972  77.490  40.086  0.00  0.00    +0.002 C 
ATOM     20  C   UNL     1      43.182  78.669  39.208  0.00  0.00    +0.001 C 
ATOM     21  C   UNL     1      42.419  78.609  37.901  0.00  0.00    +0.002 C 
ATOM     22  C   UNL     1      40.969  78.277  38.290  0.00  0.00    +0.022 C 
BRANCH  17  28
ATOM     23  C   UNL     1      39.928  73.601  36.414  0.00  0.00    +0.117 C 
ATOM     24  N   UNL     1      39.083  74.763  36.312  0.00  0.00    -0.259 N 
ATOM     25  C   UNL     1      37.825  74.729  35.612  0.00  0.00    +0.117 C 
ATOM     26  C   UNL     1      39.506  75.973  36.920  0.00  0.00    +0.323 C 
ATOM     27  O   UNL     1      38.743  76.987  36.963  0.00  0.00    -0.251 OA
ATOM     28  N   UNL     1      40.783  76.062  37.485  0.00  0.00    -0.190 NA
ENDBRANCH  17  28
ENDBRANCH  16  20
ENDBRANCH   1  16
TORSDOF 5
