REMARK  Name = Carprofen
REMARK  2 active torsions:
REMARK  status: ('A' for Active; 'I' for Inactive)
REMARK    1  A    between atoms: C_2  and  C_3
REMARK    2  A    between atoms: C_2  and  C_17
REMARK                            x       y       z     vdW  Elec       q    Type
REMARK                         _______ _______ _______ _____ _____    ______ ____
ROOT
ATOM      1  C   UNL     1      42.589  78.260  38.892  0.00  0.00    -0.010 A 
ATOM      2  C   UNL     1      43.044  79.398  38.260  0.00  0.00    +0.015 A 
ATOM      3  C   UNL     1      44.172  80.089  38.675  0.00  0.00    +0.081 A 
ATOM      4  C   UNL     1      44.869  79.608  39.777  0.00  0.00    +0.019 A 
ATOM      5  C   UNL     1      44.442  78.475  40.431  0.00  0.00    +0.001 A 
ATOM      6  C   UNL     1      43.301  77.817  39.974  0.00  0.00    -0.004 A 
ATOM      7  C   UNL     1      45.928  80.489  39.950  0.00  0.00    +0.020 A 
ATOM      8  C   UNL     1      45.859  81.459  38.982  0.00  0.00    +0.081 A 
ATOM      9  N   UNL     1      44.786  81.196  38.221  0.00  0.00    -0.245 NA
ATOM     10  C   UNL     1      46.808  82.464  38.937  0.00  0.00    +0.020 A 
ATOM     11  C   UNL     1      47.826  82.463  39.893  0.00  0.00    +0.013 A 
ATOM     12  C   UNL     1      47.880  81.481  40.858  0.00  0.00    +0.058 A 
ATOM     13  C   UNL     1      46.931  80.475  40.904  0.00  0.00    +0.013 A 
ATOM     14 CL   UNL     1      49.184  81.529  42.037  0.00  0.00    -0.082 Cl
ENDROOT
BRANCH   1  16
ATOM     15  C   UNL     1      41.472  77.101  37.008  0.00  0.00    +0.017 C 
ATOM     16  C   UNL     1      41.394  77.518  38.463  0.00  0.00    +0.126 C 
BRANCH  16  17
ATOM     17  C   UNL     1      41.214  76.276  39.258  0.00  0.00    +0.368 C 
ATOM     18  O   UNL     1      40.184  76.172  39.966  0.00  0.00    -0.245 OA
ATOM     19  O   UNL     1      42.151  75.260  39.224  0.00  0.00    -0.245 OA
ENDBRANCH  16  17
ENDBRANCH   1  16
TORSDOF 2
