REMARK  Name = Carphenazine
REMARK  8 active torsions:
REMARK  status: ('A' for Active; 'I' for Inactive)
REMARK    1  A    between atoms: C_2  and  C_3
REMARK    2  A    between atoms: C_3  and  C_5
REMARK    3  A    between atoms: N_18  and  C_19
REMARK    4  A    between atoms: C_19  and  C_20
REMARK    5  A    between atoms: C_20  and  C_21
REMARK    6  A    between atoms: C_21  and  N_22
REMARK    7  A    between atoms: N_25  and  C_28
REMARK    8  A    between atoms: C_28  and  C_29
REMARK                            x       y       z     vdW  Elec       q    Type
REMARK                         _______ _______ _______ _____ _____    ______ ____
ROOT
ATOM      1  C   UNL     1      45.870  80.851  39.815  0.00  0.00    +0.036 A 
ATOM      2  C   UNL     1      45.071  79.760  39.493  0.00  0.00    +0.018 A 
ATOM      3  C   UNL     1      44.811  78.736  40.388  0.00  0.00    +0.058 A 
ATOM      4  C   UNL     1      45.403  78.882  41.620  0.00  0.00    +0.043 A 
ATOM      5  C   UNL     1      46.194  79.957  41.950  0.00  0.00    +0.008 A 
ATOM      6  C   UNL     1      46.445  80.966  41.055  0.00  0.00    +0.003 A 
ATOM      7  S   UNL     1      45.141  77.645  42.868  0.00  0.00    -0.084 S 
ATOM      8  C   UNL     1      44.135  76.384  42.150  0.00  0.00    +0.043 A 
ATOM      9  C   UNL     1      43.846  75.303  42.930  0.00  0.00    +0.008 A 
ATOM     10  C   UNL     1      43.071  74.254  42.474  0.00  0.00    +0.001 A 
ATOM     11  C   UNL     1      42.617  74.380  41.182  0.00  0.00    +0.001 A 
ATOM     12  C   UNL     1      42.910  75.471  40.396  0.00  0.00    +0.015 A 
ATOM     13  C   UNL     1      43.685  76.520  40.854  0.00  0.00    +0.058 A 
ATOM     14  N   UNL     1      43.991  77.622  40.006  0.00  0.00    -0.286 N 
ENDROOT
BRANCH   1  15
ATOM     15  C   UNL     1      46.136  81.886  38.795  0.00  0.00    +0.173 C 
ATOM     16  O   UNL     1      45.426  82.007  37.776  0.00  0.00    -0.291 OA
BRANCH  15  18
ATOM     17  C   UNL     1      48.621  82.144  38.908  0.00  0.00    +0.009 C 
ATOM     18  C   UNL     1      47.279  82.789  39.007  0.00  0.00    +0.069 C 
ENDBRANCH  15  18
ENDBRANCH   1  15
BRANCH  14  19
ATOM     19  C   UNL     1      43.402  77.671  38.684  0.00  0.00    +0.097 C 
BRANCH  19  20
ATOM     20  C   UNL     1      41.941  78.107  38.755  0.00  0.00    +0.039 C 
BRANCH  20  21
ATOM     21  C   UNL     1      41.104  77.193  37.900  0.00  0.00    +0.074 C 
BRANCH  21  22
ATOM     22  N   UNL     1      39.948  76.640  38.535  0.00  0.00    -0.270 NA
ATOM     23  C   UNL     1      39.895  75.190  38.389  0.00  0.00    +0.090 C 
ATOM     24  C   UNL     1      39.723  74.748  36.974  0.00  0.00    +0.090 C 
ATOM     25  N   UNL     1      38.521  75.257  36.367  0.00  0.00    -0.268 NA
ATOM     26  C   UNL     1      38.499  76.694  36.538  0.00  0.00    +0.090 C 
ATOM     27  C   UNL     1      38.711  77.156  37.945  0.00  0.00    +0.090 C 
BRANCH  25  28
ATOM     28  C   UNL     1      38.453  75.006  34.963  0.00  0.00    +0.108 C 
BRANCH  28  29
ATOM     29  C   UNL     1      37.982  73.662  34.541  0.00  0.00    +0.199 C 
ATOM     30  O   UNL     1      38.956  72.671  34.565  0.00  0.00    -0.219 OA
ENDBRANCH  28  29
ENDBRANCH  25  28
ENDBRANCH  21  22
ENDBRANCH  20  21
ENDBRANCH  19  20
ENDBRANCH  14  19
TORSDOF 8
