REMARK  Name = Carvedilol
REMARK  10 active torsions:
REMARK  status: ('A' for Active; 'I' for Inactive)
REMARK    1  A    between atoms: O_2  and  C_3
REMARK    2  A    between atoms: C_8  and  O_9
REMARK    3  A    between atoms: O_9  and  C_10
REMARK    4  A    between atoms: C_10  and  C_11
REMARK    5  A    between atoms: C_11  and  N_12
REMARK    6  A    between atoms: N_12  and  C_13
REMARK    7  A    between atoms: C_13  and  C_14
REMARK    8  A    between atoms: C_14  and  C_15
REMARK    9  A    between atoms: C_15  and  O_16
REMARK   10  A    between atoms: O_16  and  C_17
REMARK                            x       y       z     vdW  Elec       q    Type
REMARK                         _______ _______ _______ _____ _____    ______ ____
ROOT
ATOM      1  C   UNL     1      44.763  81.016  39.081  0.00  0.00    +0.213 C 
ATOM      2  O   UNL     1      45.339  81.836  38.139  0.00  0.00    -0.218 OA
ENDROOT
BRANCH   1   3
ATOM      3  C   UNL     1      45.770  80.408  40.017  0.00  0.00    +0.126 C 
BRANCH   3   4
ATOM      4  N   UNL     1      46.456  81.407  40.767  0.00  0.00    -0.211 NA
BRANCH   4   5
ATOM      5  C   UNL     1      47.328  80.930  41.780  0.00  0.00    +0.136 C 
BRANCH   5   6
ATOM      6  C   UNL     1      48.787  81.351  41.496  0.00  0.00    +0.224 C 
BRANCH   6   7
ATOM      7  O   UNL     1      49.134  82.357  42.420  0.00  0.00    -0.471 OA
BRANCH   7  13
ATOM      8  C   UNL     1      50.490  84.323  42.701  0.00  0.00    +0.172 A 
ATOM      9  C   UNL     1      51.724  84.931  42.726  0.00  0.00    +0.040 A 
ATOM     10  C   UNL     1      52.839  84.149  42.490  0.00  0.00    +0.003 A 
ATOM     11  C   UNL     1      52.760  82.794  42.232  0.00  0.00    +0.003 A 
ATOM     12  C   UNL     1      51.490  82.211  42.214  0.00  0.00    +0.040 A 
ATOM     13  C   UNL     1      50.371  82.968  42.446  0.00  0.00    +0.172 A 
BRANCH   8  15
ATOM     14  C   UNL     1      48.690  85.195  44.156  0.00  0.00    +0.253 C 
ATOM     15  O   UNL     1      49.336  85.040  42.928  0.00  0.00    -0.468 OA
ENDBRANCH   8  15
ENDBRANCH   7  13
ENDBRANCH   6   7
ENDBRANCH   5   6
ENDBRANCH   4   5
ENDBRANCH   3   4
ENDBRANCH   1   3
BRANCH   1  16
ATOM     16  C   UNL     1      43.985  79.873  38.431  0.00  0.00    +0.240 C 
BRANCH  16  17
ATOM     17  O   UNL     1      43.281  79.205  39.462  0.00  0.00    -0.473 OA
BRANCH  17  18
ATOM     18  C   UNL     1      42.381  78.181  39.197  0.00  0.00    +0.140 A 
ATOM     19  C   UNL     1      41.547  78.266  38.082  0.00  0.00    +0.037 A 
ATOM     20  C   UNL     1      40.661  77.243  37.829  0.00  0.00    +0.005 A 
ATOM     21  C   UNL     1      40.630  76.169  38.691  0.00  0.00    +0.019 A 
ATOM     22  C   UNL     1      41.454  76.077  39.799  0.00  0.00    +0.084 A 
ATOM     23  C   UNL     1      42.357  77.112  40.064  0.00  0.00    +0.053 A 
ATOM     24  C   UNL     1      43.039  76.767  41.214  0.00  0.00    +0.022 A 
ATOM     25  C   UNL     1      44.028  77.392  41.937  0.00  0.00    +0.002 A 
ATOM     26  C   UNL     1      44.565  76.829  43.092  0.00  0.00    +0.000 A 
ATOM     27  C   UNL     1      44.102  75.611  43.533  0.00  0.00    +0.002 A 
ATOM     28  C   UNL     1      43.112  74.991  42.805  0.00  0.00    +0.019 A 
ATOM     29  C   UNL     1      42.572  75.552  41.650  0.00  0.00    +0.081 A 
ATOM     30  N   UNL     1      41.627  75.175  40.777  0.00  0.00    -0.245 NA
ENDBRANCH  17  18
ENDBRANCH  16  17
ENDBRANCH   1  16
TORSDOF 10
