REMARK  Name = Cefacetrile
REMARK  7 active torsions:
REMARK  status: ('A' for Active; 'I' for Inactive)
REMARK    1  A    between atoms: C_2  and  O_4
REMARK    2  A    between atoms: O_4  and  C_5
REMARK    3  A    between atoms: C_5  and  C_6
REMARK    4  A    between atoms: CA_7  and  C_21
REMARK    5  A    between atoms: CA_10  and  N_13
REMARK    6  A    between atoms: C_14  and  C_16
REMARK    7  A    between atoms: C_16  and  C_17
REMARK                            x       y       z     vdW  Elec       q    Type
REMARK                         _______ _______ _______ _____ _____    ______ ____
ROOT
ATOM      1  C   UNL     1      47.497  81.140  41.508  0.00  0.00    +0.030 C 
ATOM      2  CA  UNL     1      46.972  81.692  40.442  0.00  0.00    +0.131 C 
ATOM      3  N   UNL     1      45.733  81.259  39.880  0.00  0.00    -0.242 N 
ATOM      4  C   UNL     1      44.883  80.213  40.405  0.00  0.00    +0.157 C 
ATOM      5  CA  UNL     1      44.611  79.897  38.931  0.00  0.00    +0.200 C 
ATOM      6  C   UNL     1      44.772  81.367  38.870  0.00  0.00    +0.253 C 
ATOM      7  O   UNL     1      44.295  82.342  38.228  0.00  0.00    -0.273 OA
ATOM      8  S   UNL     1      45.874  78.990  41.281  0.00  0.00    -0.114 S 
ATOM      9  C   UNL     1      46.892  80.044  42.282  0.00  0.00    +0.086 C 
ENDROOT
BRANCH   5  10
ATOM     10  N   UNL     1      43.268  79.418  38.687  0.00  0.00    -0.194 NA
ATOM     11  C   UNL     1      42.910  78.124  39.094  0.00  0.00    +0.257 C 
ATOM     12  O   UNL     1      43.843  77.298  39.314  0.00  0.00    -0.272 OA
BRANCH  11  13
ATOM     13  C   UNL     1      41.518  77.651  39.286  0.00  0.00    +0.192 C 
BRANCH  13  14
ATOM     14  C   UNL     1      41.271  76.452  38.449  0.00  0.00    +0.083 C 
ATOM     15  N   UNL     1      41.082  75.526  37.826  0.00  0.00    -0.195 NA
ENDBRANCH  13  14
ENDBRANCH  11  13
ENDBRANCH   5  10
BRANCH   2  16
ATOM     16  C   UNL     1      47.642  82.803  39.725  0.00  0.00    +0.401 C 
ATOM     17  O   UNL     1      47.926  83.922  40.184  0.00  0.00    -0.239 OA
ATOM     18  OXT UNL     1      47.995  82.579  38.381  0.00  0.00    -0.239 OA
ENDBRANCH   2  16
BRANCH   1  19
ATOM     19  C   UNL     1      48.772  81.600  42.071  0.00  0.00    +0.233 C 
BRANCH  19  20
ATOM     20  O   UNL     1      48.673  82.912  42.613  0.00  0.00    -0.444 OA
BRANCH  20  22
ATOM     21  C   UNL     1      49.639  85.042  43.426  0.00  0.00    +0.121 C 
ATOM     22  C   UNL     1      49.774  83.652  42.944  0.00  0.00    +0.318 C 
ATOM     23  O   UNL     1      50.923  83.151  42.841  0.00  0.00    -0.250 OA
ENDBRANCH  20  22
ENDBRANCH  19  20
ENDBRANCH   1  19
TORSDOF 7
