REMARK  Name = Cefalotin
REMARK  7 active torsions:
REMARK  status: ('A' for Active; 'I' for Inactive)
REMARK    1  A    between atoms: C_2  and  O_4
REMARK    2  A    between atoms: O_4  and  C_5
REMARK    3  A    between atoms: C_5  and  C_6
REMARK    4  A    between atoms: CA_7  and  C_24
REMARK    5  A    between atoms: CA_10  and  N_13
REMARK    6  A    between atoms: C_14  and  C_16
REMARK    7  A    between atoms: C_16  and  C_17
REMARK                            x       y       z     vdW  Elec       q    Type
REMARK                         _______ _______ _______ _____ _____    ______ ____
ROOT
ATOM      1  C   UNL     1      47.909  81.571  41.409  0.00  0.00    +0.030 C 
ATOM      2  CA  UNL     1      47.365  81.879  40.219  0.00  0.00    +0.131 C 
ATOM      3  N   UNL     1      46.258  81.099  39.704  0.00  0.00    -0.242 N 
ATOM      4  C   UNL     1      46.302  79.637  39.550  0.00  0.00    +0.157 C 
ATOM      5  CA  UNL     1      44.812  79.686  39.722  0.00  0.00    +0.200 C 
ATOM      6  C   UNL     1      44.944  81.057  39.189  0.00  0.00    +0.253 C 
ATOM      7  O   UNL     1      44.237  81.867  38.555  0.00  0.00    -0.273 OA
ATOM      8  S   UNL     1      47.212  79.047  41.021  0.00  0.00    -0.114 S 
ATOM      9  C   UNL     1      47.166  80.484  42.151  0.00  0.00    +0.086 C 
ENDROOT
BRANCH   5  10
ATOM     10  N   UNL     1      44.050  78.793  38.888  0.00  0.00    -0.195 NA
ATOM     11  C   UNL     1      42.659  78.651  38.914  0.00  0.00    +0.247 C 
ATOM     12  O   UNL     1      42.059  78.737  40.004  0.00  0.00    -0.273 OA
BRANCH  11  13
ATOM     13  C   UNL     1      41.932  78.404  37.645  0.00  0.00    +0.120 C 
BRANCH  13  14
ATOM     14  C   UNL     1      41.151  77.117  37.777  0.00  0.00    +0.016 A 
ATOM     15  C   UNL     1      41.266  76.174  38.763  0.00  0.00    +0.003 A 
ATOM     16  C   UNL     1      40.469  75.099  38.685  0.00  0.00    +0.007 A 
ATOM     17  C   UNL     1      39.604  75.035  37.624  0.00  0.00    +0.035 A 
ATOM     18  S   UNL     1      39.934  76.475  36.773  0.00  0.00    -0.090 S 
ENDBRANCH  13  14
ENDBRANCH  11  13
ENDBRANCH   5  10
BRANCH   2  19
ATOM     19  C   UNL     1      47.853  82.991  39.426  0.00  0.00    +0.401 C 
ATOM     20  O   UNL     1      47.047  83.990  39.196  0.00  0.00    -0.239 OA
ATOM     21  OXT UNL     1      49.096  83.133  38.865  0.00  0.00    -0.239 OA
ENDBRANCH   2  19
BRANCH   1  22
ATOM     22  C   UNL     1      49.016  82.296  41.984  0.00  0.00    +0.233 C 
BRANCH  22  23
ATOM     23  O   UNL     1      48.715  83.523  42.509  0.00  0.00    -0.444 OA
BRANCH  23  25
ATOM     24  C   UNL     1      48.581  85.749  43.541  0.00  0.00    +0.121 C 
ATOM     25  C   UNL     1      49.367  84.538  43.040  0.00  0.00    +0.318 C 
ATOM     26  O   UNL     1      50.594  84.582  43.164  0.00  0.00    -0.250 OA
ENDBRANCH  23  25
ENDBRANCH  22  23
ENDBRANCH   1  22
TORSDOF 7
