REMARK  Name = Cefaclor
REMARK  4 active torsions:
REMARK  status: ('A' for Active; 'I' for Inactive)
REMARK    1  A    between atoms: CA_3  and  C_21
REMARK    2  A    between atoms: CA_7  and  N_10
REMARK    3  A    between atoms: C_11  and  CA_13
REMARK    4  A    between atoms: CA_13  and  C_14
REMARK                            x       y       z     vdW  Elec       q    Type
REMARK                         _______ _______ _______ _____ _____    ______ ____
ROOT
ATOM      1  C   UNL     1      47.178  80.746  42.395  0.00  0.00    +0.098 C 
ATOM      2  C   UNL     1      47.422  81.670  41.294  0.00  0.00    +0.066 C 
ATOM      3  CA  UNL     1      46.881  81.612  40.093  0.00  0.00    +0.142 C 
ATOM      4  N   UNL     1      45.973  80.610  39.734  0.00  0.00    -0.241 N 
ATOM      5  C   UNL     1      45.576  79.471  40.560  0.00  0.00    +0.157 C 
ATOM      6  S   UNL     1      46.911  79.082  41.718  0.00  0.00    -0.113 S 
ATOM      7  CA  UNL     1      45.528  78.706  39.286  0.00  0.00    +0.200 C 
ATOM      8  C   UNL     1      45.100  80.065  38.785  0.00  0.00    +0.253 C 
ATOM      9  O   UNL     1      44.308  80.463  37.902  0.00  0.00    -0.273 OA
ATOM     10 CL   UNL     1      48.544  82.968  41.627  0.00  0.00    -0.085 Cl
ENDROOT
BRANCH   7  11
ATOM     11  N   UNL     1      44.428  77.779  39.129  0.00  0.00    -0.194 NA
ATOM     12  C   UNL     1      43.965  77.057  40.263  0.00  0.00    +0.264 C 
ATOM     13  O   UNL     1      44.504  77.296  41.363  0.00  0.00    -0.271 OA
BRANCH  12  14
ATOM     14  CA  UNL     1      42.893  76.053  40.203  0.00  0.00    +0.191 C 
ATOM     15  N   UNL     1      42.263  75.903  41.497  0.00  0.00    -0.118 NA
BRANCH  14  16
ATOM     16  C   UNL     1      41.851  76.388  39.202  0.00  0.00    +0.004 A 
ATOM     17  C   UNL     1      41.926  77.565  38.487  0.00  0.00    -0.002 A 
ATOM     18  C   UNL     1      40.955  77.899  37.540  0.00  0.00    -0.000 A 
ATOM     19  C   UNL     1      39.912  77.021  37.331  0.00  0.00    -0.000 A 
ATOM     20  C   UNL     1      39.807  75.835  38.029  0.00  0.00    -0.000 A 
ATOM     21  C   UNL     1      40.796  75.552  38.956  0.00  0.00    -0.002 A 
ENDBRANCH  14  16
ENDBRANCH  12  14
ENDBRANCH   7  11
BRANCH   3  22
ATOM     22  C   UNL     1      47.251  82.638  39.116  0.00  0.00    +0.402 C 
ATOM     23  O   UNL     1      48.449  82.908  38.897  0.00  0.00    -0.239 OA
ATOM     24  OXT UNL     1      46.242  83.299  38.442  0.00  0.00    -0.239 OA
ENDBRANCH   3  22
TORSDOF 4
