REMARK  Name = Cefatrizine
REMARK  7 active torsions:
REMARK  status: ('A' for Active; 'I' for Inactive)
REMARK    1  A    between atoms: C_2  and  C_25
REMARK    2  A    between atoms: CA_3  and  C_22
REMARK    3  A    between atoms: CA_7  and  N_10
REMARK    4  A    between atoms: C_11  and  CA_13
REMARK    5  A    between atoms: CA_13  and  C_14
REMARK    6  A    between atoms: C_25  and  S_26
REMARK    7  A    between atoms: S_26  and  C_27
REMARK                            x       y       z     vdW  Elec       q    Type
REMARK                         _______ _______ _______ _____ _____    ______ ____
ROOT
ATOM      1  C   UNL     1      47.641  79.437  41.471  0.00  0.00    +0.083 C 
ATOM      2  C   UNL     1      47.435  80.717  40.676  0.00  0.00    -0.002 C 
ATOM      3  CA  UNL     1      46.391  80.994  39.974  0.00  0.00    +0.129 C 
ATOM      4  N   UNL     1      45.254  80.111  39.879  0.00  0.00    -0.242 N 
ATOM      5  C   UNL     1      45.384  78.675  39.952  0.00  0.00    +0.157 C 
ATOM      6  S   UNL     1      46.263  78.322  41.499  0.00  0.00    -0.114 S 
ATOM      7  CA  UNL     1      43.889  78.509  40.171  0.00  0.00    +0.200 C 
ATOM      8  C   UNL     1      43.868  79.929  39.736  0.00  0.00    +0.253 C 
ATOM      9  O   UNL     1      42.888  80.652  39.375  0.00  0.00    -0.273 OA
ENDROOT
BRANCH   7  10
ATOM     10  N   UNL     1      43.235  77.586  39.300  0.00  0.00    -0.194 NA
ATOM     11  C   UNL     1      41.831  77.306  39.316  0.00  0.00    +0.264 C 
ATOM     12  O   UNL     1      41.360  76.935  40.419  0.00  0.00    -0.271 OA
BRANCH  11  13
ATOM     13  CA  UNL     1      40.987  77.442  38.117  0.00  0.00    +0.191 C 
ATOM     14  N   UNL     1      41.730  77.972  36.985  0.00  0.00    -0.118 NA
BRANCH  13  15
ATOM     15  C   UNL     1      40.269  76.246  37.697  0.00  0.00    +0.004 A 
ATOM     16  C   UNL     1      39.163  75.795  38.362  0.00  0.00    +0.001 A 
ATOM     17  C   UNL     1      38.477  74.649  37.954  0.00  0.00    +0.042 A 
ATOM     18  C   UNL     1      38.930  73.960  36.852  0.00  0.00    +0.196 A 
ATOM     19  C   UNL     1      40.057  74.396  36.151  0.00  0.00    +0.042 A 
ATOM     20  C   UNL     1      40.712  75.547  36.596  0.00  0.00    +0.001 A 
ATOM     21  O   UNL     1      38.276  72.815  36.412  0.00  0.00    -0.287 OA
ENDBRANCH  13  15
ENDBRANCH  11  13
ENDBRANCH   7  10
BRANCH   3  22
ATOM     22  C   UNL     1      46.312  82.078  38.990  0.00  0.00    +0.401 C 
ATOM     23  O   UNL     1      47.288  82.749  38.650  0.00  0.00    -0.239 OA
ATOM     24  OXT UNL     1      45.111  82.441  38.357  0.00  0.00    -0.239 OA
ENDBRANCH   3  22
BRANCH   2  25
ATOM     25  C   UNL     1      48.464  81.690  41.026  0.00  0.00    +0.088 C 
BRANCH  25  26
ATOM     26  S   UNL     1      48.207  82.544  42.556  0.00  0.00    -0.087 S 
BRANCH  26  27
ATOM     27  C   UNL     1      49.557  83.597  42.977  0.00  0.00    +0.151 A 
ATOM     28  N   UNL     1      49.711  84.401  44.051  0.00  0.00    -0.121 NA
ATOM     29  N   UNL     1      50.862  85.016  43.986  0.00  0.00    -0.042 NA
ATOM     30  N   UNL     1      51.460  84.628  42.894  0.00  0.00    -0.125 NA
ATOM     31  C   UNL     1      50.713  83.744  42.211  0.00  0.00    +0.151 A 
ENDBRANCH  26  27
ENDBRANCH  25  26
ENDBRANCH   2  25
TORSDOF 7
