REMARK  Name = Cefazolin
REMARK  7 active torsions:
REMARK  status: ('A' for Active; 'I' for Inactive)
REMARK    1  A    between atoms: C_5  and  S_7
REMARK    2  A    between atoms: S_7  and  C_8
REMARK    3  A    between atoms: C_8  and  C_9
REMARK    4  A    between atoms: CA_10  and  C_27
REMARK    5  A    between atoms: CA_13  and  N_16
REMARK    6  A    between atoms: C_17  and  C_19
REMARK    7  A    between atoms: C_19  and  N_20
REMARK                            x       y       z     vdW  Elec       q    Type
REMARK                         _______ _______ _______ _____ _____    ______ ____
ROOT
ATOM      1  C   UNL     1      46.684  80.314  40.541  0.00  0.00    -0.002 C 
ATOM      2  CA  UNL     1      45.593  80.583  39.853  0.00  0.00    +0.129 C 
ATOM      3  N   UNL     1      44.315  79.978  40.104  0.00  0.00    -0.242 N 
ATOM      4  C   UNL     1      43.988  78.977  41.060  0.00  0.00    +0.157 C 
ATOM      5  CA  UNL     1      42.966  78.458  40.110  0.00  0.00    +0.200 C 
ATOM      6  C   UNL     1      42.969  79.925  39.730  0.00  0.00    +0.253 C 
ATOM      7  O   UNL     1      42.139  80.750  39.277  0.00  0.00    -0.273 OA
ATOM      8  S   UNL     1      45.479  77.962  41.287  0.00  0.00    -0.114 S 
ATOM      9  C   UNL     1      46.638  79.331  41.673  0.00  0.00    +0.083 C 
ENDROOT
BRANCH   5  10
ATOM     10  N   UNL     1      43.449  77.688  38.980  0.00  0.00    -0.193 NA
ATOM     11  C   UNL     1      42.613  76.881  38.187  0.00  0.00    +0.267 C 
ATOM     12  O   UNL     1      42.849  76.818  36.952  0.00  0.00    -0.271 OA
BRANCH  11  13
ATOM     13  C   UNL     1      41.472  76.100  38.718  0.00  0.00    +0.217 C 
BRANCH  13  14
ATOM     14  N   UNL     1      40.265  76.384  37.989  0.00  0.00    -0.201 N 
ATOM     15  C   UNL     1      40.094  76.370  36.666  0.00  0.00    +0.222 A 
ATOM     16  N   UNL     1      38.816  76.693  36.423  0.00  0.00    -0.105 NA
ATOM     17  N   UNL     1      38.229  76.898  37.580  0.00  0.00    -0.023 NA
ATOM     18  N   UNL     1      39.115  76.709  38.531  0.00  0.00    -0.042 NA
ENDBRANCH  13  14
ENDBRANCH  11  13
ENDBRANCH   5  10
BRANCH   2  19
ATOM     19  C   UNL     1      45.695  81.603  38.790  0.00  0.00    +0.401 C 
ATOM     20  O   UNL     1      46.873  81.733  38.272  0.00  0.00    -0.239 OA
ATOM     21  OXT UNL     1      44.711  82.398  38.307  0.00  0.00    -0.239 OA
ENDBRANCH   2  19
BRANCH   1  22
ATOM     22  C   UNL     1      48.005  80.890  40.327  0.00  0.00    +0.088 C 
BRANCH  22  23
ATOM     23  S   UNL     1      48.034  82.667  40.525  0.00  0.00    -0.082 S 
BRANCH  23  28
ATOM     24  C   UNL     1      51.305  85.142  44.682  0.00  0.00    +0.061 C 
ATOM     25  C   UNL     1      50.666  84.391  43.542  0.00  0.00    +0.112 A 
ATOM     26  N   UNL     1      51.230  83.540  42.690  0.00  0.00    -0.145 NA
ATOM     27  N   UNL     1      50.530  83.001  41.789  0.00  0.00    -0.135 NA
ATOM     28  C   UNL     1      49.241  83.273  41.681  0.00  0.00    +0.159 A 
ATOM     29  S   UNL     1      49.050  84.393  42.991  0.00  0.00    -0.044 S 
ENDBRANCH  23  28
ENDBRANCH  22  23
ENDBRANCH   1  22
TORSDOF 7
