REMARK  Name = Cefamandole
REMARK  7 active torsions:
REMARK  status: ('A' for Active; 'I' for Inactive)
REMARK    1  A    between atoms: C_3  and  S_7
REMARK    2  A    between atoms: S_7  and  C_8
REMARK    3  A    between atoms: C_8  and  C_9
REMARK    4  A    between atoms: CA_10  and  C_29
REMARK    5  A    between atoms: CA_13  and  N_16
REMARK    6  A    between atoms: C_17  and  C_19
REMARK    7  A    between atoms: C_19  and  C_20
REMARK                            x       y       z     vdW  Elec       q    Type
REMARK                         _______ _______ _______ _____ _____    ______ ____
ROOT
ATOM      1  C   UNL     1      46.972  81.041  40.755  0.00  0.00    -0.002 C 
ATOM      2  CA  UNL     1      46.229  81.151  39.692  0.00  0.00    +0.129 C 
ATOM      3  N   UNL     1      45.194  80.172  39.410  0.00  0.00    -0.242 N 
ATOM      4  C   UNL     1      45.395  78.754  39.615  0.00  0.00    +0.157 C 
ATOM      5  CA  UNL     1      43.931  78.688  39.883  0.00  0.00    +0.200 C 
ATOM      6  C   UNL     1      43.882  79.849  38.967  0.00  0.00    +0.253 C 
ATOM      7  O   UNL     1      43.127  80.405  38.142  0.00  0.00    -0.273 OA
ATOM      8  S   UNL     1      46.497  78.367  40.953  0.00  0.00    -0.114 S 
ATOM      9  C   UNL     1      46.835  79.938  41.786  0.00  0.00    +0.083 C 
ENDROOT
BRANCH   5  10
ATOM     10  N   UNL     1      43.215  77.576  39.312  0.00  0.00    -0.193 NA
ATOM     11  C   UNL     1      41.795  77.576  39.215  0.00  0.00    +0.277 C 
ATOM     12  O   UNL     1      41.178  77.371  40.285  0.00  0.00    -0.270 OA
BRANCH  11  13
ATOM     13  C   UNL     1      41.171  77.808  37.913  0.00  0.00    +0.251 C 
ATOM     14  O   UNL     1      42.136  77.688  36.884  0.00  0.00    -0.208 OA
BRANCH  13  15
ATOM     15  C   UNL     1      40.053  76.925  37.579  0.00  0.00    +0.017 A 
ATOM     16  C   UNL     1      40.319  75.689  36.994  0.00  0.00    -0.001 A 
ATOM     17  C   UNL     1      39.345  74.798  36.649  0.00  0.00    -0.000 A 
ATOM     18  C   UNL     1      38.038  75.149  36.895  0.00  0.00    -0.000 A 
ATOM     19  C   UNL     1      37.733  76.349  37.466  0.00  0.00    -0.000 A 
ATOM     20  C   UNL     1      38.745  77.244  37.811  0.00  0.00    -0.001 A 
ENDBRANCH  13  15
ENDBRANCH  11  13
ENDBRANCH   5  10
BRANCH   2  21
ATOM     21  C   UNL     1      46.351  82.225  38.722  0.00  0.00    +0.401 C 
ATOM     22  O   UNL     1      45.499  83.192  38.799  0.00  0.00    -0.239 OA
ATOM     23  OXT UNL     1      47.268  82.358  37.711  0.00  0.00    -0.239 OA
ENDBRANCH   2  21
BRANCH   1  24
ATOM     24  C   UNL     1      48.031  81.994  41.095  0.00  0.00    +0.089 C 
BRANCH  24  25
ATOM     25  S   UNL     1      49.211  81.308  42.279  0.00  0.00    -0.070 S 
BRANCH  25  28
ATOM     26  C   UNL     1      49.949  84.156  43.873  0.00  0.00    +0.158 C 
ATOM     27  N   UNL     1      50.909  83.378  43.154  0.00  0.00    -0.206 N 
ATOM     28  C   UNL     1      50.668  82.241  42.502  0.00  0.00    +0.211 A 
ATOM     29  N   UNL     1      51.864  81.859  41.969  0.00  0.00    -0.101 NA
ATOM     30  N   UNL     1      52.770  82.733  42.293  0.00  0.00    -0.022 NA
ATOM     31  N   UNL     1      52.215  83.675  43.019  0.00  0.00    -0.042 NA
ENDBRANCH  25  28
ENDBRANCH  24  25
ENDBRANCH   1  24
TORSDOF 7
