REMARK  Name = Cefcapene_pivoxil
REMARK  13 active torsions:
REMARK  status: ('A' for Active; 'I' for Inactive)
REMARK    1  A    between atoms: C_2  and  C_3
REMARK    2  A    between atoms: C_4  and  C_5
REMARK    3  A    between atoms: C_4  and  C_11
REMARK    4  A    between atoms: N_13  and  C_14
REMARK    5  A    between atoms: C_19  and  C_28
REMARK    6  A    between atoms: C_20  and  C_23
REMARK    7  A    between atoms: C_23  and  O_24
REMARK    8  A    between atoms: O_24  and  C_25
REMARK    9  A    between atoms: C_28  and  O_30
REMARK   10  A    between atoms: O_30  and  C_31
REMARK   11  A    between atoms: C_31  and  O_32
REMARK   12  A    between atoms: O_32  and  C_33
REMARK   13  A    between atoms: C_33  and  C_35
REMARK                            x       y       z     vdW  Elec       q    Type
REMARK                         _______ _______ _______ _____ _____    ______ ____
ROOT
ATOM      1  C   UNL     1      45.710  80.775  40.129  0.00  0.00    +0.200 C 
ATOM      2  C   UNL     1      45.794  79.300  40.376  0.00  0.00    +0.157 C 
ATOM      3  N   UNL     1      44.471  79.084  39.815  0.00  0.00    -0.242 N 
ATOM      4  C   UNL     1      44.583  80.363  39.248  0.00  0.00    +0.253 C 
ATOM      5  O   UNL     1      43.975  80.969  38.334  0.00  0.00    -0.273 OA
ATOM      6  C   UNL     1      43.687  77.897  40.018  0.00  0.00    +0.127 C 
ATOM      7  C   UNL     1      43.821  77.150  41.124  0.00  0.00    +0.030 C 
ATOM      8  C   UNL     1      44.755  77.408  42.244  0.00  0.00    +0.086 C 
ATOM      9  S   UNL     1      45.622  78.993  42.190  0.00  0.00    -0.114 S 
ENDROOT
BRANCH   1  12
ATOM     10  C   UNL     1      47.633  82.358  39.870  0.00  0.00    +0.266 C 
ATOM     11  O   UNL     1      47.650  83.315  39.025  0.00  0.00    -0.268 OA
ATOM     12  N   UNL     1      46.900  81.234  39.414  0.00  0.00    -0.191 NA
BRANCH  10  14
ATOM     13  C   UNL     1      48.093  83.554  41.887  0.00  0.00    -0.020 C 
ATOM     14  C   UNL     1      48.325  82.528  41.115  0.00  0.00    +0.069 C 
BRANCH  14  15
ATOM     15  C   UNL     1      49.367  81.541  41.561  0.00  0.00    +0.094 A 
ATOM     16  C   UNL     1      49.539  80.323  40.946  0.00  0.00    +0.057 A 
ATOM     17  S   UNL     1      50.840  79.658  41.877  0.00  0.00    -0.048 S 
ATOM     18  C   UNL     1      51.062  80.954  42.955  0.00  0.00    +0.201 A 
ATOM     19  N   UNL     1      50.151  81.801  42.554  0.00  0.00    -0.221 NA
ATOM     20  N   UNL     1      52.005  81.108  44.044  0.00  0.00    -0.100 NA
ENDBRANCH  14  15
BRANCH  13  22
ATOM     21  C   UNL     1      48.211  85.501  43.356  0.00  0.00    +0.005 C 
ATOM     22  C   UNL     1      48.825  84.141  42.992  0.00  0.00    +0.026 C 
ENDBRANCH  13  22
ENDBRANCH  10  14
ENDBRANCH   1  12
BRANCH   6  23
ATOM     23  C   UNL     1      42.812  77.507  38.916  0.00  0.00    +0.357 C 
ATOM     24  O   UNL     1      42.843  76.445  38.280  0.00  0.00    -0.243 OA
BRANCH  23  25
ATOM     25  O   UNL     1      41.816  78.404  38.505  0.00  0.00    -0.404 OA
BRANCH  25  26
ATOM     26  C   UNL     1      40.502  77.971  38.277  0.00  0.00    +0.433 C 
BRANCH  26  27
ATOM     27  O   UNL     1      40.436  76.957  37.287  0.00  0.00    -0.408 OA
BRANCH  27  28
ATOM     28  C   UNL     1      39.203  76.473  36.884  0.00  0.00    +0.319 C 
ATOM     29  O   UNL     1      38.175  76.927  37.441  0.00  0.00    -0.250 OA
BRANCH  28  30
ATOM     30  C   UNL     1      39.084  75.444  35.821  0.00  0.00    +0.090 C 
ATOM     31  C   UNL     1      40.291  74.544  35.886  0.00  0.00    +0.011 C 
ATOM     32  C   UNL     1      39.027  76.090  34.444  0.00  0.00    +0.011 C 
ATOM     33  C   UNL     1      37.799  74.676  36.002  0.00  0.00    +0.011 C 
ENDBRANCH  28  30
ENDBRANCH  27  28
ENDBRANCH  26  27
ENDBRANCH  25  26
ENDBRANCH  23  25
ENDBRANCH   6  23
BRANCH   7  34
ATOM     34  C   UNL     1      42.859  76.018  41.329  0.00  0.00    +0.235 C 
BRANCH  34  35
ATOM     35  O   UNL     1      43.314  74.936  42.020  0.00  0.00    -0.428 OA
BRANCH  35  36
ATOM     36  C   UNL     1      44.046  74.711  43.119  0.00  0.00    +0.441 C 
ATOM     37  O   UNL     1      43.541  74.879  44.245  0.00  0.00    -0.223 OA
ATOM     38  N   UNL     1      45.414  74.275  43.082  0.00  0.00    -0.048 NA
ENDBRANCH  35  36
ENDBRANCH  34  35
ENDBRANCH   7  34
TORSDOF 13
