REMARK  Name = Cefditoren
REMARK  7 active torsions:
REMARK  status: ('A' for Active; 'I' for Inactive)
REMARK    1  A    between atoms: C_3  and  C_7
REMARK    2  A    between atoms: C_8  and  C_9
REMARK    3  A    between atoms: CA_10  and  C_31
REMARK    4  A    between atoms: CA_13  and  N_16
REMARK    5  A    between atoms: C_17  and  C_19
REMARK    6  A    between atoms: C_19  and  C_23
REMARK    7  A    between atoms: N_20  and  O_21
REMARK                            x       y       z     vdW  Elec       q    Type
REMARK                         _______ _______ _______ _____ _____    ______ ____
ROOT
ATOM      1  C   UNL     1      47.261  81.343  41.453  0.00  0.00    +0.009 C 
ATOM      2  CA  UNL     1      47.038  80.152  41.946  0.00  0.00    +0.132 C 
ATOM      3  N   UNL     1      45.862  79.408  41.497  0.00  0.00    -0.242 N 
ATOM      4  C   UNL     1      45.666  79.171  40.080  0.00  0.00    +0.157 C 
ATOM      5  CA  UNL     1      44.223  78.907  40.398  0.00  0.00    +0.201 C 
ATOM      6  C   UNL     1      44.670  78.710  41.799  0.00  0.00    +0.253 C 
ATOM      7  O   UNL     1      44.194  78.154  42.831  0.00  0.00    -0.273 OA
ATOM      8  S   UNL     1      45.809  80.747  39.189  0.00  0.00    -0.114 S 
ATOM      9  C   UNL     1      46.225  81.927  40.479  0.00  0.00    +0.087 C 
ENDROOT
BRANCH   5  10
ATOM     10  N   UNL     1      43.692  77.647  39.896  0.00  0.00    -0.190 NA
ATOM     11  C   UNL     1      42.721  77.578  38.879  0.00  0.00    +0.288 C 
ATOM     12  O   UNL     1      42.746  78.600  38.075  0.00  0.00    -0.267 OA
BRANCH  11  13
ATOM     13  C   UNL     1      41.753  76.531  38.661  0.00  0.00    +0.192 C 
ATOM     14  N   UNL     1      41.845  75.464  39.404  0.00  0.00    -0.077 NA
BRANCH  13  15
ATOM     15  C   UNL     1      40.692  76.599  37.667  0.00  0.00    +0.115 A 
ATOM     16  C   UNL     1      40.414  77.763  36.975  0.00  0.00    +0.059 A 
ATOM     17  S   UNL     1      39.117  77.287  35.972  0.00  0.00    -0.048 S 
ATOM     18  C   UNL     1      38.993  75.663  36.471  0.00  0.00    +0.201 A 
ATOM     19  N   UNL     1      39.943  75.569  37.372  0.00  0.00    -0.220 NA
ATOM     20  N   UNL     1      38.114  74.614  36.063  0.00  0.00    -0.100 NA
ENDBRANCH  13  15
BRANCH  14  21
ATOM     21  O   UNL     1      42.830  75.347  40.333  0.00  0.00    -0.373 OA
ATOM     22  C   UNL     1      42.925  74.307  41.284  0.00  0.00    +0.288 C 
ENDBRANCH  14  21
ENDBRANCH  11  13
ENDBRANCH   5  10
BRANCH   2  23
ATOM     23  C   UNL     1      47.786  79.541  43.009  0.00  0.00    +0.401 C 
ATOM     24  O   UNL     1      48.834  78.929  42.906  0.00  0.00    -0.239 OA
ATOM     25  OXT UNL     1      47.317  79.620  44.338  0.00  0.00    -0.239 OA
ENDBRANCH   2  23
BRANCH   1  27
ATOM     26  C   UNL     1      48.915  83.298  41.413  0.00  0.00    +0.007 C 
ATOM     27  C   UNL     1      48.325  82.213  41.733  0.00  0.00    -0.001 C 
BRANCH  26  30
ATOM     28  C   UNL     1      52.186  83.235  41.290  0.00  0.00    +0.053 C 
ATOM     29  C   UNL     1      51.302  83.977  42.285  0.00  0.00    +0.066 A 
ATOM     30  C   UNL     1      49.956  83.990  42.226  0.00  0.00    +0.044 A 
ATOM     31  S   UNL     1      49.587  85.066  43.562  0.00  0.00    -0.065 S 
ATOM     32  C   UNL     1      51.175  85.394  44.072  0.00  0.00    +0.134 A 
ATOM     33  N   UNL     1      51.880  84.692  43.224  0.00  0.00    -0.241 NA
ENDBRANCH  26  30
ENDBRANCH   1  27
TORSDOF 7
