REMARK  Name = Cefdinir
REMARK  5 active torsions:
REMARK  status: ('A' for Active; 'I' for Inactive)
REMARK    1  A    between atoms: C_2  and  C_3
REMARK    2  A    between atoms: CA_4  and  C_24
REMARK    3  A    between atoms: CA_7  and  N_10
REMARK    4  A    between atoms: C_11  and  C_13
REMARK    5  A    between atoms: C_13  and  C_16
REMARK                            x       y       z     vdW  Elec       q    Type
REMARK                         _______ _______ _______ _____ _____    ______ ____
ROOT
ATOM      1  C   UNL     1      50.506  84.153  43.247  0.00  0.00    +0.009 C 
ATOM      2  CA  UNL     1      50.791  83.077  42.537  0.00  0.00    +0.132 C 
ATOM      3  N   UNL     1      49.761  82.271  41.955  0.00  0.00    -0.242 N 
ATOM      4  C   UNL     1      48.628  81.731  42.728  0.00  0.00    +0.157 C 
ATOM      5  CA  UNL     1      47.869  81.856  41.431  0.00  0.00    +0.201 C 
ATOM      6  C   UNL     1      49.203  81.633  40.815  0.00  0.00    +0.253 C 
ATOM      7  O   UNL     1      49.709  81.127  39.774  0.00  0.00    -0.273 OA
ATOM      8  S   UNL     1      48.230  82.969  43.977  0.00  0.00    -0.114 S 
ATOM      9  C   UNL     1      49.049  84.505  43.384  0.00  0.00    +0.087 C 
ENDROOT
BRANCH   5  10
ATOM     10  N   UNL     1      46.916  80.763  41.187  0.00  0.00    -0.190 NA
ATOM     11  C   UNL     1      45.696  81.093  40.590  0.00  0.00    +0.288 C 
ATOM     12  O   UNL     1      44.974  81.998  41.135  0.00  0.00    -0.267 OA
BRANCH  11  13
ATOM     13  C   UNL     1      45.227  80.448  39.384  0.00  0.00    +0.197 C 
ATOM     14  N   UNL     1      45.612  80.956  38.242  0.00  0.00    -0.023 NA
ATOM     15  O   UNL     1      45.786  82.293  38.074  0.00  0.00    -0.143 OA
BRANCH  13  16
ATOM     16  C   UNL     1      44.354  79.267  39.317  0.00  0.00    +0.115 A 
ATOM     17  C   UNL     1      44.447  78.231  40.223  0.00  0.00    +0.059 A 
ATOM     18  S   UNL     1      43.227  77.166  39.679  0.00  0.00    -0.048 S 
ATOM     19  C   UNL     1      42.670  78.078  38.350  0.00  0.00    +0.201 A 
ATOM     20  N   UNL     1      43.443  79.139  38.395  0.00  0.00    -0.220 NA
ATOM     21  N   UNL     1      41.614  77.772  37.403  0.00  0.00    -0.100 NA
ENDBRANCH  13  16
ENDBRANCH  11  13
ENDBRANCH   5  10
BRANCH   2  22
ATOM     22  C   UNL     1      52.161  82.694  42.302  0.00  0.00    +0.401 C 
ATOM     23  O   UNL     1      52.907  83.067  41.370  0.00  0.00    -0.239 OA
ATOM     24  OXT UNL     1      52.841  81.791  43.167  0.00  0.00    -0.239 OA
ENDBRANCH   2  22
BRANCH   1  26
ATOM     25  C   UNL     1      51.251  85.696  44.981  0.00  0.00    -0.000 C 
ATOM     26  C   UNL     1      51.448  85.019  43.870  0.00  0.00    -0.002 C 
ENDBRANCH   1  26
TORSDOF 5
