REMARK  Name = Cefepime
REMARK  7 active torsions:
REMARK  status: ('A' for Active; 'I' for Inactive)
REMARK    1  A    between atoms: N_2  and  C_7
REMARK    2  A    between atoms: C_7  and  C_8
REMARK    3  A    between atoms: CA_9  and  C_30
REMARK    4  A    between atoms: CA_12  and  N_15
REMARK    5  A    between atoms: C_16  and  C_18
REMARK    6  A    between atoms: C_18  and  C_22
REMARK    7  A    between atoms: N_19  and  O_20
REMARK                            x       y       z     vdW  Elec       q    Type
REMARK                         _______ _______ _______ _____ _____    ______ ____
ROOT
ATOM      1  C   UNL     1      42.828  78.713  39.633  0.00  0.00    -0.034 C 
ATOM      2  CA  UNL     1      43.676  79.666  39.298  0.00  0.00    +0.126 C 
ATOM      3  N   UNL     1      44.853  79.890  40.114  0.00  0.00    -0.242 N 
ATOM      4  C   UNL     1      45.696  78.790  40.487  0.00  0.00    +0.157 C 
ATOM      5  CA  UNL     1      46.244  79.628  41.631  0.00  0.00    +0.201 C 
ATOM      6  C   UNL     1      45.726  80.772  40.840  0.00  0.00    +0.253 C 
ATOM      7  O   UNL     1      45.923  82.025  40.774  0.00  0.00    -0.273 OA
ATOM      8  S   UNL     1      44.723  77.422  41.100  0.00  0.00    -0.114 S 
ATOM      9  C   UNL     1      43.004  77.869  40.873  0.00  0.00    +0.081 C 
ENDROOT
BRANCH   5  10
ATOM     10  N   UNL     1      47.716  79.693  41.661  0.00  0.00    -0.190 NA
ATOM     11  C   UNL     1      48.398  80.818  42.148  0.00  0.00    +0.288 C 
ATOM     12  O   UNL     1      47.540  81.717  42.602  0.00  0.00    -0.267 OA
BRANCH  11  13
ATOM     13  C   UNL     1      49.760  81.163  42.242  0.00  0.00    +0.192 C 
ATOM     14  N   UNL     1      50.609  80.157  41.936  0.00  0.00    -0.077 NA
BRANCH  13  15
ATOM     15  C   UNL     1      50.408  82.438  42.619  0.00  0.00    +0.115 A 
ATOM     16  C   UNL     1      49.756  83.590  42.934  0.00  0.00    +0.059 A 
ATOM     17  S   UNL     1      51.085  84.664  43.268  0.00  0.00    -0.048 S 
ATOM     18  C   UNL     1      52.355  83.581  42.985  0.00  0.00    +0.201 A 
ATOM     19  N   UNL     1      51.726  82.488  42.660  0.00  0.00    -0.220 NA
ATOM     20  N   UNL     1      53.785  83.812  43.080  0.00  0.00    -0.100 NA
ENDBRANCH  13  15
BRANCH  14  21
ATOM     21  O   UNL     1      50.178  78.945  41.531  0.00  0.00    -0.373 OA
ATOM     22  C   UNL     1      50.977  77.868  41.125  0.00  0.00    +0.288 C 
ENDBRANCH  14  21
ENDBRANCH  11  13
ENDBRANCH   5  10
BRANCH   2  23
ATOM     23  C   UNL     1      43.522  80.536  38.151  0.00  0.00    +0.401 C 
ATOM     24  O   UNL     1      42.818  80.250  37.172  0.00  0.00    -0.239 OA
ATOM     25  OXT UNL     1      44.167  81.759  38.093  0.00  0.00    -0.239 OA
ENDBRANCH   2  23
BRANCH   1  26
ATOM     26  C   UNL     1      41.629  78.424  38.873  0.00  0.00    -0.048 C 
BRANCH  26  28
ATOM     27  C   UNL     1      42.774  76.330  38.439  0.00  0.00    -0.095 C 
ATOM     28  N   UNL     1      41.669  77.203  38.076  0.00  0.00    +0.391 N 
ATOM     29  C   UNL     1      40.446  76.480  38.346  0.00  0.00    -0.073 C 
ATOM     30  C   UNL     1      39.483  76.753  37.226  0.00  0.00    -0.024 C 
ATOM     31  C   UNL     1      40.446  76.866  36.051  0.00  0.00    -0.024 C 
ATOM     32  C   UNL     1      41.695  77.467  36.674  0.00  0.00    -0.073 C 
ENDBRANCH  26  28
ENDBRANCH   1  26
TORSDOF 7
