REMARK  Name = Cefetamet_pivoxil_hcl
REMARK  10 active torsions:
REMARK  status: ('A' for Active; 'I' for Inactive)
REMARK    1  A    between atoms: C_3  and  C_24
REMARK    2  A    between atoms: C_6  and  N_9
REMARK    3  A    between atoms: C_10  and  C_12
REMARK    4  A    between atoms: C_12  and  C_16
REMARK    5  A    between atoms: N_13  and  O_14
REMARK    6  A    between atoms: C_24  and  O_26
REMARK    7  A    between atoms: O_26  and  C_27
REMARK    8  A    between atoms: C_27  and  O_28
REMARK    9  A    between atoms: O_28  and  C_29
REMARK   10  A    between atoms: C_29  and  C_31
REMARK                            x       y       z     vdW  Elec       q    Type
REMARK                         _______ _______ _______ _____ _____    ______ ____
ROOT
ATOM      1  C   UNL     1      42.822  77.755  40.929  0.00  0.00    +0.029 C 
ATOM      2  C   UNL     1      43.940  78.664  40.624  0.00  0.00    -0.013 C 
ATOM      3  C   UNL     1      44.064  79.167  39.390  0.00  0.00    +0.124 C 
ATOM      4  N   UNL     1      45.134  80.041  39.073  0.00  0.00    -0.242 N 
ATOM      5  C   UNL     1      46.525  79.686  39.400  0.00  0.00    +0.157 C 
ATOM      6  C   UNL     1      46.872  81.157  39.234  0.00  0.00    +0.201 C 
ATOM      7  C   UNL     1      45.598  81.269  38.515  0.00  0.00    +0.253 C 
ATOM      8  O   UNL     1      45.090  82.089  37.726  0.00  0.00    -0.273 OA
ATOM      9  S   UNL     1      46.596  79.050  41.083  0.00  0.00    -0.114 S 
ATOM     10  C   UNL     1      44.908  79.030  41.719  0.00  0.00    +0.083 C 
ENDROOT
BRANCH   6  11
ATOM     11  N   UNL     1      46.934  81.807  40.535  0.00  0.00    -0.190 NA
ATOM     12  C   UNL     1      48.065  82.512  40.985  0.00  0.00    +0.288 C 
ATOM     13  O   UNL     1      49.049  82.547  40.171  0.00  0.00    -0.267 OA
BRANCH  12  14
ATOM     14  C   UNL     1      48.231  83.190  42.252  0.00  0.00    +0.192 C 
ATOM     15  N   UNL     1      47.324  83.219  43.132  0.00  0.00    -0.077 NA
BRANCH  14  16
ATOM     16  C   UNL     1      49.536  83.886  42.528  0.00  0.00    +0.115 A 
ATOM     17  C   UNL     1      49.742  84.545  43.717  0.00  0.00    +0.059 A 
ATOM     18  S   UNL     1      51.332  85.137  43.518  0.00  0.00    -0.048 S 
ATOM     19  C   UNL     1      51.634  84.520  41.956  0.00  0.00    +0.201 A 
ATOM     20  N   UNL     1      50.508  83.896  41.670  0.00  0.00    -0.220 NA
ATOM     21  N   UNL     1      52.824  84.640  41.132  0.00  0.00    -0.100 NA
ENDBRANCH  14  16
BRANCH  15  22
ATOM     22  O   UNL     1      46.102  82.719  43.191  0.00  0.00    -0.373 OA
ATOM     23  C   UNL     1      45.473  82.097  44.276  0.00  0.00    +0.288 C 
ENDBRANCH  15  22
ENDBRANCH  12  14
ENDBRANCH   6  11
BRANCH   3  24
ATOM     24  C   UNL     1      43.077  78.843  38.340  0.00  0.00    +0.357 C 
ATOM     25  O   UNL     1      43.155  79.299  37.164  0.00  0.00    -0.243 OA
BRANCH  24  26
ATOM     26  O   UNL     1      41.994  78.012  38.572  0.00  0.00    -0.404 OA
BRANCH  26  27
ATOM     27  C   UNL     1      41.044  77.697  37.570  0.00  0.00    +0.433 C 
BRANCH  27  28
ATOM     28  O   UNL     1      40.077  76.830  38.141  0.00  0.00    -0.408 OA
BRANCH  28  29
ATOM     29  C   UNL     1      39.006  76.336  37.416  0.00  0.00    +0.319 C 
ATOM     30  O   UNL     1      38.910  76.682  36.213  0.00  0.00    -0.250 OA
BRANCH  29  31
ATOM     31  C   UNL     1      37.993  75.434  38.000  0.00  0.00    +0.090 C 
ATOM     32  C   UNL     1      37.312  76.140  39.171  0.00  0.00    +0.011 C 
ATOM     33  C   UNL     1      38.608  74.142  38.495  0.00  0.00    +0.011 C 
ATOM     34  C   UNL     1      36.915  75.167  36.976  0.00  0.00    +0.011 C 
ENDBRANCH  29  31
ENDBRANCH  28  29
ENDBRANCH  27  28
ENDBRANCH  26  27
ENDBRANCH  24  26
ENDBRANCH   3  24
TORSDOF 10
REMARK  Name = Cefetamet_pivoxil_hcl
REMARK  10 active torsions:
REMARK  status: ('A' for Active; 'I' for Inactive)
REMARK    1  A    between atoms: C_3  and  C_24
REMARK    2  A    between atoms: C_6  and  N_9
REMARK    3  A    between atoms: C_10  and  C_12
REMARK    4  A    between atoms: C_12  and  C_16
REMARK    5  A    between atoms: N_13  and  O_14
REMARK    6  A    between atoms: C_24  and  O_26
REMARK    7  A    between atoms: O_26  and  C_27
REMARK    8  A    between atoms: C_27  and  O_28
REMARK    9  A    between atoms: O_28  and  C_29
REMARK   10  A    between atoms: C_29  and  C_31
REMARK                            x       y       z     vdW  Elec       q    Type
REMARK                         _______ _______ _______ _____ _____    ______ ____
ROOT
ATOM      1 CL   UNL     1      44.530  79.881  40.353  0.00  0.00    +0.000 Cl
ENDROOT
TORSDOF 0
