REMARK  Name = Cefiderocol
REMARK  13 active torsions:
REMARK  status: ('A' for Active; 'I' for Inactive)
REMARK    1  A    between atoms: C_2  and  C_4
REMARK    2  A    between atoms: C_2  and  O_7
REMARK    3  A    between atoms: O_7  and  N_8
REMARK    4  A    between atoms: C_9  and  C_10
REMARK    5  A    between atoms: C_9  and  C_16
REMARK    6  A    between atoms: N_18  and  CA_19
REMARK    7  A    between atoms: CA_24  and  C_48
REMARK    8  A    between atoms: C_25  and  C_28
REMARK    9  A    between atoms: C_28  and  N_29
REMARK   10  A    between atoms: N_29  and  C_34
REMARK   11  A    between atoms: C_34  and  C_35
REMARK   12  A    between atoms: C_35  and  N_36
REMARK   13  A    between atoms: C_37  and  C_39
REMARK                            x       y       z     vdW  Elec       q    Type
REMARK                         _______ _______ _______ _____ _____    ______ ____
ROOT
ATOM      1  CA  UNL     1      44.331  80.730  39.737  0.00  0.00    +0.201 C 
ATOM      2  C   UNL     1      45.195  81.479  40.694  0.00  0.00    +0.157 C 
ATOM      3  N   UNL     1      46.328  81.460  39.795  0.00  0.00    -0.242 N 
ATOM      4  C   UNL     1      45.448  81.082  38.782  0.00  0.00    +0.253 C 
ATOM      5  O   UNL     1      45.505  81.035  37.535  0.00  0.00    -0.273 OA
ATOM      6  CA  UNL     1      47.687  81.750  40.149  0.00  0.00    +0.126 C 
ATOM      7  C   UNL     1      48.194  81.354  41.300  0.00  0.00    -0.034 C 
ATOM      8  C   UNL     1      47.422  80.595  42.316  0.00  0.00    +0.081 C 
ATOM      9  S   UNL     1      45.697  80.313  42.032  0.00  0.00    -0.114 S 
ENDROOT
BRANCH   1  12
ATOM     10  C   UNL     1      43.278  78.548  40.481  0.00  0.00    +0.288 C 
ATOM     11  O   UNL     1      42.519  79.079  41.367  0.00  0.00    -0.267 OA
ATOM     12  N   UNL     1      44.303  79.292  39.947  0.00  0.00    -0.190 NA
BRANCH  10  14
ATOM     13  N   UNL     1      43.322  76.205  40.771  0.00  0.00    -0.076 NA
ATOM     14  C   UNL     1      42.892  77.156  40.164  0.00  0.00    +0.192 C 
BRANCH  14  15
ATOM     15  C   UNL     1      41.992  76.918  38.991  0.00  0.00    +0.115 A 
ATOM     16  C   UNL     1      41.594  77.970  38.173  0.00  0.00    +0.059 A 
ATOM     17  S   UNL     1      40.506  77.210  37.103  0.00  0.00    -0.048 S 
ATOM     18  C   UNL     1      40.603  75.622  37.730  0.00  0.00    +0.201 A 
ATOM     19  N   UNL     1      41.464  75.771  38.720  0.00  0.00    -0.220 NA
ATOM     20  N   UNL     1      39.913  74.432  37.303  0.00  0.00    -0.100 NA
ENDBRANCH  14  15
BRANCH  13  21
ATOM     21  O   UNL     1      43.739  75.263  41.380  0.00  0.00    -0.374 OA
BRANCH  21  23
ATOM     22  C   UNL     1      46.110  75.182  41.935  0.00  0.00    +0.058 C 
ATOM     23  C   UNL     1      44.685  74.663  42.168  0.00  0.00    +0.253 C 
ATOM     24  C   UNL     1      44.774  73.158  41.983  0.00  0.00    +0.058 C 
BRANCH  23  25
ATOM     25  C   UNL     1      44.373  74.891  43.606  0.00  0.00    +0.403 C 
ATOM     26  O   UNL     1      44.164  73.936  44.379  0.00  0.00    -0.242 OA
ATOM     27  O   UNL     1      44.313  76.180  44.094  0.00  0.00    -0.242 OA
ENDBRANCH  23  25
ENDBRANCH  21  23
ENDBRANCH  13  21
ENDBRANCH  10  14
ENDBRANCH   1  12
BRANCH   6  28
ATOM     28  C   UNL     1      48.455  82.509  39.139  0.00  0.00    +0.401 C 
ATOM     29  O   UNL     1      48.024  83.429  38.418  0.00  0.00    -0.239 OA
ATOM     30  OXT UNL     1      49.823  82.221  38.907  0.00  0.00    -0.239 OA
ENDBRANCH   6  28
BRANCH   7  31
ATOM     31  C   UNL     1      49.612  81.537  41.585  0.00  0.00    -0.048 C 
BRANCH  31  32
ATOM     32  N   UNL     1      50.024  82.474  42.615  0.00  0.00    +0.394 N 
ATOM     33  C   UNL     1      48.977  83.150  43.291  0.00  0.00    -0.073 C 
ATOM     34  C   UNL     1      48.531  84.338  42.451  0.00  0.00    -0.024 C 
ATOM     35  C   UNL     1      49.794  84.669  41.712  0.00  0.00    -0.024 C 
ATOM     36  C   UNL     1      50.737  83.515  41.894  0.00  0.00    -0.073 C 
BRANCH  32  37
ATOM     37  C   UNL     1      50.878  81.813  43.573  0.00  0.00    -0.049 C 
BRANCH  37  38
ATOM     38  C   UNL     1      51.810  82.587  44.389  0.00  0.00    +0.093 C 
BRANCH  38  39
ATOM     39  N   UNL     1      51.918  82.417  45.785  0.00  0.00    -0.204 NA
ATOM     40  C   UNL     1      52.369  81.194  46.377  0.00  0.00    +0.266 C 
ATOM     41  O   UNL     1      52.228  80.109  45.759  0.00  0.00    -0.268 OA
BRANCH  40  42
ATOM     42  C   UNL     1      53.002  81.139  47.672  0.00  0.00    +0.069 A 
ATOM     43  C   UNL     1      53.874  82.058  48.167  0.00  0.00    +0.104 A 
ATOM     44  C   UNL     1      54.450  81.915  49.445  0.00  0.00    +0.245 A 
ATOM     45  C   UNL     1      54.142  80.836  50.227  0.00  0.00    +0.235 A 
ATOM     46  C   UNL     1      53.259  79.884  49.749  0.00  0.00    +0.046 A 
ATOM     47  C   UNL     1      52.718  80.048  48.513  0.00  0.00    +0.009 A 
ATOM     48  O   UNL     1      54.679  80.639  51.498  0.00  0.00    -0.283 OA
ATOM     49  O   UNL     1      55.322  82.890  49.878  0.00  0.00    -0.282 OA
ATOM     50 CL   UNL     1      54.300  83.444  47.205  0.00  0.00    -0.079 Cl
ENDBRANCH  40  42
ENDBRANCH  38  39
ENDBRANCH  37  38
ENDBRANCH  32  37
ENDBRANCH  31  32
ENDBRANCH   7  31
TORSDOF 13
