REMARK  Name = Cefmetazole
REMARK  10 active torsions:
REMARK  status: ('A' for Active; 'I' for Inactive)
REMARK    1  A    between atoms: C_3  and  S_7
REMARK    2  A    between atoms: S_7  and  C_8
REMARK    3  A    between atoms: C_8  and  C_9
REMARK    4  A    between atoms: C_10  and  C_28
REMARK    5  A    between atoms: C_13  and  N_16
REMARK    6  A    between atoms: C_13  and  O_24
REMARK    7  A    between atoms: C_17  and  C_19
REMARK    8  A    between atoms: C_19  and  S_20
REMARK    9  A    between atoms: S_20  and  C_21
REMARK   10  A    between atoms: C_21  and  C_22
REMARK                            x       y       z     vdW  Elec       q    Type
REMARK                         _______ _______ _______ _____ _____    ______ ____
ROOT
ATOM      1  C   UNL     1      45.323  79.586  40.721  0.00  0.00    -0.002 C 
ATOM      2  C   UNL     1      45.812  80.630  40.142  0.00  0.00    +0.129 C 
ATOM      3  N   UNL     1      47.059  81.263  40.537  0.00  0.00    -0.238 N 
ATOM      4  C   UNL     1      47.772  81.074  41.768  0.00  0.00    +0.181 C 
ATOM      5  C   UNL     1      48.033  82.516  41.713  0.00  0.00    +0.268 C 
ATOM      6  C   UNL     1      48.087  82.165  40.230  0.00  0.00    +0.277 C 
ATOM      7  O   UNL     1      48.738  82.519  39.236  0.00  0.00    -0.270 OA
ATOM      8  S   UNL     1      46.608  80.370  42.937  0.00  0.00    -0.112 S 
ATOM      9  C   UNL     1      46.066  78.942  41.917  0.00  0.00    +0.084 C 
ENDROOT
BRANCH   5  10
ATOM     10  N   UNL     1      49.234  83.038  42.259  0.00  0.00    -0.170 NA
ATOM     11  C   UNL     1      50.108  82.192  43.002  0.00  0.00    +0.255 C 
ATOM     12  O   UNL     1      49.831  81.898  44.213  0.00  0.00    -0.272 OA
BRANCH  11  13
ATOM     13  C   UNL     1      51.345  81.620  42.443  0.00  0.00    +0.145 C 
BRANCH  13  14
ATOM     14  S   UNL     1      51.928  82.633  41.078  0.00  0.00    -0.114 S 
BRANCH  14  15
ATOM     15  C   UNL     1      52.810  84.097  41.697  0.00  0.00    +0.163 C 
BRANCH  15  16
ATOM     16  C   UNL     1      54.128  83.670  42.242  0.00  0.00    +0.085 C 
ATOM     17  N   UNL     1      55.132  83.353  42.663  0.00  0.00    -0.195 NA
ENDBRANCH  15  16
ENDBRANCH  14  15
ENDBRANCH  13  14
ENDBRANCH  11  13
ENDBRANCH   5  10
BRANCH   2  18
ATOM     18  C   UNL     1      45.029  81.424  39.157  0.00  0.00    +0.401 C 
ATOM     19  O   UNL     1      44.504  80.939  38.183  0.00  0.00    -0.239 OA
ATOM     20  O   UNL     1      44.863  82.805  39.320  0.00  0.00    -0.239 OA
ENDBRANCH   2  18
BRANCH   5  21
ATOM     21  O   UNL     1      46.948  83.370  41.879  0.00  0.00    -0.328 OA
ATOM     22  C   UNL     1      47.405  84.397  42.738  0.00  0.00    +0.177 C 
ENDBRANCH   5  21
BRANCH   1  23
ATOM     23  C   UNL     1      44.120  78.835  40.436  0.00  0.00    +0.089 C 
BRANCH  23  24
ATOM     24  S   UNL     1      43.498  78.524  38.821  0.00  0.00    -0.070 S 
BRANCH  24  27
ATOM     25  C   UNL     1      40.920  77.668  36.953  0.00  0.00    +0.158 C 
ATOM     26  N   UNL     1      41.367  76.805  38.052  0.00  0.00    -0.206 N 
ATOM     27  C   UNL     1      42.407  77.082  38.859  0.00  0.00    +0.211 A 
ATOM     28  N   UNL     1      42.483  76.061  39.714  0.00  0.00    -0.101 NA
ATOM     29  N   UNL     1      41.523  75.197  39.436  0.00  0.00    -0.022 NA
ATOM     30  N   UNL     1      40.844  75.651  38.423  0.00  0.00    -0.042 NA
ENDBRANCH  24  27
ENDBRANCH  23  24
ENDBRANCH   1  23
TORSDOF 10
