REMARK  Name = Cefmenoxime
REMARK  8 active torsions:
REMARK  status: ('A' for Active; 'I' for Inactive)
REMARK    1  A    between atoms: C_3  and  S_7
REMARK    2  A    between atoms: S_7  and  C_8
REMARK    3  A    between atoms: C_8  and  C_9
REMARK    4  A    between atoms: CA_10  and  C_31
REMARK    5  A    between atoms: CA_13  and  N_16
REMARK    6  A    between atoms: C_17  and  C_19
REMARK    7  A    between atoms: C_19  and  C_23
REMARK    8  A    between atoms: N_20  and  O_21
REMARK                            x       y       z     vdW  Elec       q    Type
REMARK                         _______ _______ _______ _____ _____    ______ ____
ROOT
ATOM      1  C   UNL     1      47.278  80.648  40.848  0.00  0.00    -0.002 C 
ATOM      2  CA  UNL     1      46.303  80.980  40.044  0.00  0.00    +0.129 C 
ATOM      3  N   UNL     1      44.998  80.401  40.067  0.00  0.00    -0.242 N 
ATOM      4  C   UNL     1      44.505  79.493  41.081  0.00  0.00    +0.157 C 
ATOM      5  CA  UNL     1      43.420  78.990  40.213  0.00  0.00    +0.201 C 
ATOM      6  C   UNL     1      43.722  80.250  39.462  0.00  0.00    +0.253 C 
ATOM      7  O   UNL     1      43.019  80.866  38.617  0.00  0.00    -0.273 OA
ATOM      8  S   UNL     1      45.901  78.364  41.394  0.00  0.00    -0.114 S 
ATOM      9  C   UNL     1      47.127  79.591  41.897  0.00  0.00    +0.083 C 
ENDROOT
BRANCH   5  10
ATOM     10  N   UNL     1      43.744  77.842  39.370  0.00  0.00    -0.190 NA
ATOM     11  C   UNL     1      43.204  76.558  39.598  0.00  0.00    +0.288 C 
ATOM     12  O   UNL     1      44.101  75.789  40.209  0.00  0.00    -0.267 OA
BRANCH  11  13
ATOM     13  C   UNL     1      41.967  75.962  39.321  0.00  0.00    +0.192 C 
ATOM     14  N   UNL     1      41.553  75.069  40.221  0.00  0.00    -0.077 NA
BRANCH  13  15
ATOM     15  C   UNL     1      41.028  76.140  38.209  0.00  0.00    +0.115 A 
ATOM     16  C   UNL     1      40.911  77.273  37.457  0.00  0.00    +0.059 A 
ATOM     17  S   UNL     1      39.654  76.841  36.336  0.00  0.00    -0.048 S 
ATOM     18  C   UNL     1      39.364  75.270  36.888  0.00  0.00    +0.201 A 
ATOM     19  N   UNL     1      40.208  75.150  37.868  0.00  0.00    -0.220 NA
ATOM     20  N   UNL     1      38.408  74.291  36.395  0.00  0.00    -0.100 NA
ENDBRANCH  13  15
BRANCH  14  21
ATOM     21  O   UNL     1      42.324  74.719  41.263  0.00  0.00    -0.373 OA
ATOM     22  C   UNL     1      41.947  73.955  42.366  0.00  0.00    +0.288 C 
ENDBRANCH  14  21
ENDBRANCH  11  13
ENDBRANCH   5  10
BRANCH   2  23
ATOM     23  C   UNL     1      46.496  82.017  39.050  0.00  0.00    +0.401 C 
ATOM     24  O   UNL     1      47.240  82.984  39.201  0.00  0.00    -0.239 OA
ATOM     25  OXT UNL     1      45.822  81.960  37.837  0.00  0.00    -0.239 OA
ENDBRANCH   2  23
BRANCH   1  26
ATOM     26  C   UNL     1      48.629  81.222  40.847  0.00  0.00    +0.089 C 
BRANCH  26  27
ATOM     27  S   UNL     1      49.044  81.850  42.525  0.00  0.00    -0.070 S 
BRANCH  27  30
ATOM     28  C   UNL     1      49.022  84.996  43.629  0.00  0.00    +0.158 C 
ATOM     29  N   UNL     1      50.137  84.386  42.932  0.00  0.00    -0.206 N 
ATOM     30  C   UNL     1      50.258  83.147  42.456  0.00  0.00    +0.211 A 
ATOM     31  N   UNL     1      51.504  83.080  41.898  0.00  0.00    -0.101 NA
ATOM     32  N   UNL     1      52.120  84.232  42.028  0.00  0.00    -0.022 NA
ATOM     33  N   UNL     1      51.290  85.031  42.658  0.00  0.00    -0.042 NA
ENDBRANCH  27  30
ENDBRANCH  26  27
ENDBRANCH   1  26
TORSDOF 8
