REMARK  Name = Cefonicid
REMARK  9 active torsions:
REMARK  status: ('A' for Active; 'I' for Inactive)
REMARK    1  A    between atoms: C_2  and  C_24
REMARK    2  A    between atoms: CA_3  and  C_21
REMARK    3  A    between atoms: CA_7  and  N_10
REMARK    4  A    between atoms: C_11  and  C_13
REMARK    5  A    between atoms: C_13  and  C_14
REMARK    6  A    between atoms: C_24  and  S_25
REMARK    7  A    between atoms: S_25  and  C_26
REMARK    8  A    between atoms: N_30  and  C_31
REMARK    9  A    between atoms: C_31  and  S_32
REMARK                            x       y       z     vdW  Elec       q    Type
REMARK                         _______ _______ _______ _____ _____    ______ ____
ROOT
ATOM      1  C   UNL     1      44.792  78.252  41.748  0.00  0.00    +0.083 C 
ATOM      2  C   UNL     1      44.104  78.775  40.450  0.00  0.00    -0.002 C 
ATOM      3  CA  UNL     1      44.734  79.668  39.746  0.00  0.00    +0.129 C 
ATOM      4  N   UNL     1      46.037  80.138  40.161  0.00  0.00    -0.242 N 
ATOM      5  C   UNL     1      47.120  79.204  40.459  0.00  0.00    +0.157 C 
ATOM      6  S   UNL     1      46.431  77.702  41.202  0.00  0.00    -0.114 S 
ATOM      7  CA  UNL     1      47.463  80.224  41.516  0.00  0.00    +0.200 C 
ATOM      8  C   UNL     1      46.935  81.170  40.477  0.00  0.00    +0.253 C 
ATOM      9  O   UNL     1      47.205  82.328  40.106  0.00  0.00    -0.273 OA
ENDROOT
BRANCH   7  10
ATOM     10  N   UNL     1      48.861  80.299  41.763  0.00  0.00    -0.193 NA
ATOM     11  C   UNL     1      49.638  81.340  41.193  0.00  0.00    +0.277 C 
ATOM     12  O   UNL     1      49.375  81.664  39.998  0.00  0.00    -0.270 OA
BRANCH  11  13
ATOM     13  C   UNL     1      50.727  82.030  41.972  0.00  0.00    +0.251 C 
ATOM     14  O   UNL     1      51.363  81.057  42.733  0.00  0.00    -0.208 OA
BRANCH  13  15
ATOM     15  C   UNL     1      50.219  83.157  42.752  0.00  0.00    +0.017 A 
ATOM     16  C   UNL     1      48.852  83.412  42.822  0.00  0.00    -0.001 A 
ATOM     17  C   UNL     1      48.349  84.460  43.544  0.00  0.00    -0.000 A 
ATOM     18  C   UNL     1      49.211  85.285  44.220  0.00  0.00    -0.000 A 
ATOM     19  C   UNL     1      50.579  85.060  44.172  0.00  0.00    -0.000 A 
ATOM     20  C   UNL     1      51.071  83.994  43.436  0.00  0.00    -0.001 A 
ENDBRANCH  13  15
ENDBRANCH  11  13
ENDBRANCH   7  10
BRANCH   3  21
ATOM     21  C   UNL     1      44.187  80.329  38.603  0.00  0.00    +0.401 C 
ATOM     22  O   UNL     1      43.501  79.650  37.756  0.00  0.00    -0.239 OA
ATOM     23  OXT UNL     1      44.288  81.643  38.249  0.00  0.00    -0.239 OA
ENDBRANCH   3  21
BRANCH   2  24
ATOM     24  C   UNL     1      42.870  78.120  40.211  0.00  0.00    +0.089 C 
BRANCH  24  25
ATOM     25  S   UNL     1      42.504  77.009  38.916  0.00  0.00    -0.070 S 
BRANCH  25  26
ATOM     26  C   UNL     1      40.968  77.392  38.094  0.00  0.00    +0.213 A 
ATOM     27  N   UNL     1      40.738  78.540  37.434  0.00  0.00    -0.101 NA
ATOM     28  N   UNL     1      39.520  78.481  36.961  0.00  0.00    -0.022 NA
ATOM     29  N   UNL     1      38.982  77.337  37.303  0.00  0.00    -0.041 NA
ATOM     30  N   UNL     1      39.860  76.647  38.005  0.00  0.00    -0.181 N 
BRANCH  30  31
ATOM     31  C   UNL     1      39.647  75.347  38.557  0.00  0.00    +0.314 C 
BRANCH  31  32
ATOM     32  S   UNL     1      39.648  74.179  37.208  0.00  0.00    +0.145 S 
ATOM     33  O   UNL     1      39.552  72.794  37.804  0.00  0.00    -0.142 OA
ATOM     34  O   UNL     1      40.929  74.340  36.426  0.00  0.00    -0.142 OA
ATOM     35  O   UNL     1      38.346  74.426  36.196  0.00  0.00    -0.045 OA
ENDBRANCH  31  32
ENDBRANCH  30  31
ENDBRANCH  25  26
ENDBRANCH  24  25
ENDBRANCH   2  24
TORSDOF 9
