REMARK  Name = Ceforanide
REMARK  10 active torsions:
REMARK  status: ('A' for Active; 'I' for Inactive)
REMARK    1  A    between atoms: C_2  and  C_25
REMARK    2  A    between atoms: CA_3  and  C_22
REMARK    3  A    between atoms: CA_7  and  N_10
REMARK    4  A    between atoms: C_11  and  C_13
REMARK    5  A    between atoms: C_13  and  C_14
REMARK    6  A    between atoms: C_19  and  C_20
REMARK    7  A    between atoms: C_25  and  S_26
REMARK    8  A    between atoms: S_26  and  C_27
REMARK    9  A    between atoms: N_31  and  C_32
REMARK   10  A    between atoms: C_32  and  C_33
REMARK                            x       y       z     vdW  Elec       q    Type
REMARK                         _______ _______ _______ _____ _____    ______ ____
ROOT
ATOM      1  C   UNL     1      44.519  77.715  40.290  0.00  0.00    +0.083 C 
ATOM      2  C   UNL     1      44.305  78.830  39.281  0.00  0.00    -0.002 C 
ATOM      3  CA  UNL     1      45.102  79.858  39.139  0.00  0.00    +0.129 C 
ATOM      4  N   UNL     1      46.311  80.022  39.941  0.00  0.00    -0.242 N 
ATOM      5  C   UNL     1      46.331  79.673  41.343  0.00  0.00    +0.157 C 
ATOM      6  S   UNL     1      45.895  77.929  41.392  0.00  0.00    -0.114 S 
ATOM      7  CA  UNL     1      47.805  79.975  41.316  0.00  0.00    +0.200 C 
ATOM      8  C   UNL     1      47.664  80.431  39.918  0.00  0.00    +0.253 C 
ATOM      9  O   UNL     1      48.454  80.955  39.103  0.00  0.00    -0.273 OA
ENDROOT
BRANCH   7  10
ATOM     10  N   UNL     1      48.120  81.107  42.165  0.00  0.00    -0.195 NA
ATOM     11  C   UNL     1      49.464  81.612  42.315  0.00  0.00    +0.246 C 
ATOM     12  O   UNL     1      50.353  80.724  42.298  0.00  0.00    -0.273 OA
BRANCH  11  13
ATOM     13  C   UNL     1      49.722  83.066  42.473  0.00  0.00    +0.113 C 
BRANCH  13  14
ATOM     14  C   UNL     1      51.162  83.302  42.554  0.00  0.00    -0.016 A 
ATOM     15  C   UNL     1      51.927  83.002  41.433  0.00  0.00    -0.004 A 
ATOM     16  C   UNL     1      53.291  83.166  41.437  0.00  0.00    -0.000 A 
ATOM     17  C   UNL     1      53.896  83.638  42.583  0.00  0.00    -0.000 A 
ATOM     18  C   UNL     1      53.133  83.932  43.689  0.00  0.00    -0.003 A 
ATOM     19  C   UNL     1      51.753  83.770  43.695  0.00  0.00    -0.007 A 
BRANCH  19  20
ATOM     20  C   UNL     1      51.041  84.139  44.907  0.00  0.00    +0.135 C 
ATOM     21  N   UNL     1      51.679  83.572  46.067  0.00  0.00    -0.126 NA
ENDBRANCH  19  20
ENDBRANCH  13  14
ENDBRANCH  11  13
ENDBRANCH   7  10
BRANCH   3  22
ATOM     22  C   UNL     1      44.774  81.034  38.344  0.00  0.00    +0.401 C 
ATOM     23  O   UNL     1      44.318  80.894  37.179  0.00  0.00    -0.239 OA
ATOM     24  OXT UNL     1      44.939  82.314  38.765  0.00  0.00    -0.239 OA
ENDBRANCH   3  22
BRANCH   2  25
ATOM     25  C   UNL     1      43.217  78.457  38.336  0.00  0.00    +0.089 C 
BRANCH  25  26
ATOM     26  S   UNL     1      41.574  78.441  38.899  0.00  0.00    -0.070 S 
BRANCH  26  27
ATOM     27  C   UNL     1      40.662  76.961  38.802  0.00  0.00    +0.211 A 
ATOM     28  N   UNL     1      40.736  75.986  39.765  0.00  0.00    -0.101 NA
ATOM     29  N   UNL     1      39.926  75.026  39.384  0.00  0.00    -0.022 NA
ATOM     30  N   UNL     1      39.346  75.316  38.257  0.00  0.00    -0.042 NA
ATOM     31  N   UNL     1      39.808  76.528  37.894  0.00  0.00    -0.197 N 
BRANCH  31  32
ATOM     32  C   UNL     1      39.368  77.165  36.691  0.00  0.00    +0.245 C 
BRANCH  32  33
ATOM     33  C   UNL     1      38.067  77.832  36.940  0.00  0.00    +0.389 C 
ATOM     34  O   UNL     1      37.442  78.471  36.066  0.00  0.00    -0.243 OA
ATOM     35  O   UNL     1      37.501  77.752  38.200  0.00  0.00    -0.243 OA
ENDBRANCH  32  33
ENDBRANCH  31  32
ENDBRANCH  26  27
ENDBRANCH  25  26
ENDBRANCH   2  25
TORSDOF 10
