REMARK  Name = Cefoxitin
REMARK  8 active torsions:
REMARK  status: ('A' for Active; 'I' for Inactive)
REMARK    1  A    between atoms: O_2  and  C_3
REMARK    2  A    between atoms: C_3  and  N_20
REMARK    3  A    between atoms: C_8  and  C_17
REMARK    4  A    between atoms: C_9  and  C_12
REMARK    5  A    between atoms: C_12  and  O_13
REMARK    6  A    between atoms: O_13  and  C_14
REMARK    7  A    between atoms: C_21  and  C_23
REMARK    8  A    between atoms: C_23  and  C_24
REMARK                            x       y       z     vdW  Elec       q    Type
REMARK                         _______ _______ _______ _____ _____    ______ ____
ROOT
ATOM      1  C   UNL     1      44.212  79.946  39.943  0.00  0.00    +0.268 C 
ATOM      2  C   UNL     1      45.139  80.365  41.030  0.00  0.00    +0.181 C 
ATOM      3  N   UNL     1      45.942  81.110  40.068  0.00  0.00    -0.238 N 
ATOM      4  C   UNL     1      44.820  81.119  39.236  0.00  0.00    +0.277 C 
ATOM      5  O   UNL     1      44.383  81.799  38.248  0.00  0.00    -0.270 OA
ATOM      6  C   UNL     1      47.309  81.506  40.259  0.00  0.00    +0.131 C 
ATOM      7  C   UNL     1      48.197  80.586  40.562  0.00  0.00    +0.030 C 
ATOM      8  C   UNL     1      47.697  79.135  40.682  0.00  0.00    +0.086 C 
ATOM      9  S   UNL     1      46.185  79.031  41.633  0.00  0.00    -0.112 S 
ENDROOT
BRANCH   6  10
ATOM     10  C   UNL     1      47.617  82.919  40.056  0.00  0.00    +0.401 C 
ATOM     11  O   UNL     1      47.769  83.798  40.930  0.00  0.00    -0.239 OA
ATOM     12  O   UNL     1      47.776  83.404  38.741  0.00  0.00    -0.239 OA
ENDBRANCH   6  10
BRANCH   1  13
ATOM     13  N   UNL     1      44.525  78.739  39.230  0.00  0.00    -0.171 NA
ATOM     14  C   UNL     1      43.459  77.843  38.925  0.00  0.00    +0.249 C 
ATOM     15  O   UNL     1      43.058  77.033  39.812  0.00  0.00    -0.273 OA
BRANCH  14  16
ATOM     16  C   UNL     1      42.799  77.820  37.608  0.00  0.00    +0.120 C 
BRANCH  16  17
ATOM     17  C   UNL     1      41.553  76.977  37.706  0.00  0.00    +0.016 A 
ATOM     18  C   UNL     1      41.285  75.986  38.616  0.00  0.00    +0.003 A 
ATOM     19  C   UNL     1      40.109  75.361  38.521  0.00  0.00    +0.007 A 
ATOM     20  C   UNL     1      39.262  75.760  37.520  0.00  0.00    +0.035 A 
ATOM     21  S   UNL     1      40.142  76.998  36.746  0.00  0.00    -0.090 S 
ENDBRANCH  16  17
ENDBRANCH  14  16
ENDBRANCH   1  13
BRANCH   1  23
ATOM     22  C   UNL     1      42.754  80.299  41.620  0.00  0.00    +0.177 C 
ATOM     23  O   UNL     1      42.864  80.121  40.246  0.00  0.00    -0.328 OA
ENDBRANCH   1  23
BRANCH   7  24
ATOM     24  C   UNL     1      49.606  80.771  40.820  0.00  0.00    +0.235 C 
BRANCH  24  25
ATOM     25  O   UNL     1      50.059  81.651  41.754  0.00  0.00    -0.428 OA
BRANCH  25  26
ATOM     26  C   UNL     1      51.409  81.911  41.959  0.00  0.00    +0.441 C 
ATOM     27  O   UNL     1      52.108  82.205  40.971  0.00  0.00    -0.223 OA
ATOM     28  N   UNL     1      52.000  81.850  43.250  0.00  0.00    -0.048 NA
ENDBRANCH  25  26
ENDBRANCH  24  25
ENDBRANCH   7  24
TORSDOF 8
