REMARK  Name = Cefoperazone
REMARK  9 active torsions:
REMARK  status: ('A' for Active; 'I' for Inactive)
REMARK    1  A    between atoms: C_2  and  N_3
REMARK    2  A    between atoms: N_13  and  CA_14
REMARK    3  A    between atoms: CA_14  and  C_15
REMARK    4  A    between atoms: CA_14  and  C_22
REMARK    5  A    between atoms: N_24  and  CA_25
REMARK    6  A    between atoms: CA_30  and  C_42
REMARK    7  A    between atoms: C_31  and  C_34
REMARK    8  A    between atoms: C_34  and  S_35
REMARK    9  A    between atoms: S_35  and  C_36
REMARK                            x       y       z     vdW  Elec       q    Type
REMARK                         _______ _______ _______ _____ _____    ______ ____
ROOT
ATOM      1  C   UNL     1      42.897  77.632  40.070  0.00  0.00    +0.266 C 
ATOM      2  O   UNL     1      42.272  78.487  39.405  0.00  0.00    -0.271 OA
ATOM      3  N   UNL     1      43.820  78.032  41.084  0.00  0.00    -0.193 NA
ENDROOT
BRANCH   3   4
ATOM      4  CA  UNL     1      44.489  79.295  40.906  0.00  0.00    +0.200 C 
ATOM      5  C   UNL     1      45.924  79.061  40.544  0.00  0.00    +0.157 C 
ATOM      6  N   UNL     1      45.769  80.308  39.780  0.00  0.00    -0.242 N 
ATOM      7  C   UNL     1      44.511  79.793  39.470  0.00  0.00    +0.253 C 
ATOM      8  O   UNL     1      43.731  79.745  38.479  0.00  0.00    -0.273 OA
ATOM      9  CA  UNL     1      46.732  81.338  39.689  0.00  0.00    +0.129 C 
ATOM     10  C   UNL     1      47.961  81.281  40.118  0.00  0.00    -0.002 C 
ATOM     11  C   UNL     1      48.489  80.038  40.774  0.00  0.00    +0.083 C 
ATOM     12  S   UNL     1      47.164  79.388  41.839  0.00  0.00    -0.114 S 
BRANCH   9  13
ATOM     13  C   UNL     1      46.312  82.564  38.983  0.00  0.00    +0.401 C 
ATOM     14  O   UNL     1      46.932  83.145  38.099  0.00  0.00    -0.239 OA
ATOM     15  OXT UNL     1      45.076  83.171  39.326  0.00  0.00    -0.239 OA
ENDBRANCH   9  13
BRANCH  10  16
ATOM     16  C   UNL     1      48.962  82.377  40.097  0.00  0.00    +0.089 C 
BRANCH  16  17
ATOM     17  S   UNL     1      49.808  82.549  41.692  0.00  0.00    -0.070 S 
BRANCH  17  18
ATOM     18  C   UNL     1      48.930  83.717  42.698  0.00  0.00    +0.211 A 
ATOM     19  N   UNL     1      47.768  84.288  42.371  0.00  0.00    -0.101 NA
ATOM     20  N   UNL     1      47.435  85.082  43.359  0.00  0.00    -0.022 NA
ATOM     21  N   UNL     1      48.360  85.017  44.290  0.00  0.00    -0.042 NA
ATOM     22  N   UNL     1      49.294  84.175  43.894  0.00  0.00    -0.206 N 
ATOM     23  C   UNL     1      50.489  83.837  44.664  0.00  0.00    +0.158 C 
ENDBRANCH  17  18
ENDBRANCH  16  17
ENDBRANCH  10  16
ENDBRANCH   3   4
BRANCH   1  24
ATOM     24  CA  UNL     1      42.635  76.192  39.756  0.00  0.00    +0.196 C 
BRANCH  24  35
ATOM     25  N   UNL     1      37.227  75.538  36.136  0.00  0.00    -0.271 N 
ATOM     26  C   UNL     1      38.417  75.266  35.394  0.00  0.00    +0.116 C 
ATOM     27  C   UNL     1      39.644  75.970  35.855  0.00  0.00    +0.124 C 
ATOM     28  N   UNL     1      39.704  76.102  37.319  0.00  0.00    -0.204 N 
ATOM     29  C   UNL     1      38.550  76.635  37.932  0.00  0.00    +0.310 C 
ATOM     30  O   UNL     1      38.698  77.328  38.968  0.00  0.00    -0.264 OA
ATOM     31  C   UNL     1      37.268  76.342  37.320  0.00  0.00    +0.303 C 
ATOM     32  O   UNL     1      36.227  76.785  37.818  0.00  0.00    -0.265 OA
ATOM     33  C   UNL     1      40.875  75.706  38.011  0.00  0.00    +0.330 C 
ATOM     34  O   UNL     1      41.673  74.904  37.432  0.00  0.00    -0.250 OA
ATOM     35  N   UNL     1      41.255  76.115  39.300  0.00  0.00    -0.176 NA
BRANCH  25  37
ATOM     36  C   UNL     1      35.124  76.003  34.948  0.00  0.00    +0.023 C 
ATOM     37  C   UNL     1      35.978  74.970  35.651  0.00  0.00    +0.094 C 
ENDBRANCH  25  37
ENDBRANCH  24  35
BRANCH  24  38
ATOM     38  C   UNL     1      42.948  75.292  40.866  0.00  0.00    +0.006 A 
ATOM     39  C   UNL     1      43.927  74.330  40.773  0.00  0.00    +0.001 A 
ATOM     40  C   UNL     1      44.211  73.477  41.846  0.00  0.00    +0.042 A 
ATOM     41  C   UNL     1      43.509  73.586  43.025  0.00  0.00    +0.196 A 
ATOM     42  C   UNL     1      42.530  74.543  43.127  0.00  0.00    +0.042 A 
ATOM     43  C   UNL     1      42.254  75.390  42.052  0.00  0.00    +0.001 A 
ATOM     44  O   UNL     1      43.808  72.721  44.090  0.00  0.00    -0.287 OA
ENDBRANCH  24  38
ENDBRANCH   1  24
TORSDOF 9
