REMARK  Name = Cefotaxime
REMARK  8 active torsions:
REMARK  status: ('A' for Active; 'I' for Inactive)
REMARK    1  A    between atoms: C_2  and  O_4
REMARK    2  A    between atoms: O_4  and  C_5
REMARK    3  A    between atoms: C_5  and  C_6
REMARK    4  A    between atoms: CA_7  and  C_28
REMARK    5  A    between atoms: CA_10  and  N_13
REMARK    6  A    between atoms: C_14  and  C_16
REMARK    7  A    between atoms: C_16  and  C_20
REMARK    8  A    between atoms: N_17  and  O_18
REMARK                            x       y       z     vdW  Elec       q    Type
REMARK                         _______ _______ _______ _____ _____    ______ ____
ROOT
ATOM      1  C   UNL     1      48.743  81.529  40.897  0.00  0.00    +0.030 C 
ATOM      2  CA  UNL     1      47.590  82.139  40.896  0.00  0.00    +0.131 C 
ATOM      3  N   UNL     1      46.360  81.472  40.463  0.00  0.00    -0.242 N 
ATOM      4  C   UNL     1      45.962  80.254  41.200  0.00  0.00    +0.157 C 
ATOM      5  CA  UNL     1      45.010  80.058  40.036  0.00  0.00    +0.201 C 
ATOM      6  C   UNL     1      45.256  81.438  39.589  0.00  0.00    +0.253 C 
ATOM      7  O   UNL     1      44.719  82.228  38.786  0.00  0.00    -0.273 OA
ATOM      8  S   UNL     1      47.401  79.181  41.218  0.00  0.00    -0.114 S 
ATOM      9  C   UNL     1      48.680  80.083  40.302  0.00  0.00    +0.086 C 
ENDROOT
BRANCH   5  10
ATOM     10  N   UNL     1      45.395  79.005  39.100  0.00  0.00    -0.190 NA
ATOM     11  C   UNL     1      44.825  77.729  39.215  0.00  0.00    +0.288 C 
ATOM     12  O   UNL     1      45.511  76.729  38.756  0.00  0.00    -0.267 OA
BRANCH  11  13
ATOM     13  C   UNL     1      43.544  77.453  39.801  0.00  0.00    +0.192 C 
ATOM     14  N   UNL     1      43.376  77.223  41.022  0.00  0.00    -0.077 NA
BRANCH  13  15
ATOM     15  C   UNL     1      42.346  77.441  38.886  0.00  0.00    +0.115 A 
ATOM     16  C   UNL     1      42.318  78.222  37.754  0.00  0.00    +0.059 A 
ATOM     17  S   UNL     1      40.781  77.839  37.105  0.00  0.00    -0.048 S 
ATOM     18  C   UNL     1      40.277  76.727  38.294  0.00  0.00    +0.201 A 
ATOM     19  N   UNL     1      41.305  76.707  39.121  0.00  0.00    -0.220 NA
ATOM     20  N   UNL     1      39.057  75.965  38.429  0.00  0.00    -0.100 NA
ENDBRANCH  13  15
BRANCH  14  21
ATOM     21  O   UNL     1      44.231  76.784  41.910  0.00  0.00    -0.373 OA
ATOM     22  C   UNL     1      44.096  76.749  43.317  0.00  0.00    +0.288 C 
ENDBRANCH  14  21
ENDBRANCH  11  13
ENDBRANCH   5  10
BRANCH   2  23
ATOM     23  C   UNL     1      47.489  83.597  41.019  0.00  0.00    +0.401 C 
ATOM     24  O   UNL     1      47.256  84.134  42.174  0.00  0.00    -0.239 OA
ATOM     25  OXT UNL     1      47.598  84.533  40.028  0.00  0.00    -0.239 OA
ENDBRANCH   2  23
BRANCH   1  26
ATOM     26  C   UNL     1      50.060  81.968  41.305  0.00  0.00    +0.233 C 
BRANCH  26  27
ATOM     27  O   UNL     1      50.360  82.658  42.446  0.00  0.00    -0.444 OA
BRANCH  27  29
ATOM     28  C   UNL     1      50.574  84.944  43.510  0.00  0.00    +0.121 C 
ATOM     29  C   UNL     1      50.727  84.044  42.363  0.00  0.00    +0.318 C 
ATOM     30  O   UNL     1      51.178  84.402  41.248  0.00  0.00    -0.250 OA
ENDBRANCH  27  29
ENDBRANCH  26  27
ENDBRANCH   1  26
TORSDOF 8
