REMARK  Name = Cefoselis
REMARK  9 active torsions:
REMARK  status: ('A' for Active; 'I' for Inactive)
REMARK    1  A    between atoms: O_2  and  N_3
REMARK    2  A    between atoms: C_4  and  C_5
REMARK    3  A    between atoms: C_4  and  C_11
REMARK    4  A    between atoms: N_13  and  CA_14
REMARK    5  A    between atoms: CA_19  and  C_33
REMARK    6  A    between atoms: C_20  and  C_23
REMARK    7  A    between atoms: C_23  and  N_24
REMARK    8  A    between atoms: N_28  and  C_29
REMARK    9  A    between atoms: C_29  and  C_30
REMARK                            x       y       z     vdW  Elec       q    Type
REMARK                         _______ _______ _______ _____ _____    ______ ____
ROOT
ATOM      1  CA  UNL     1      44.894  79.000  39.757  0.00  0.00    +0.201 C 
ATOM      2  C   UNL     1      45.692  79.743  40.807  0.00  0.00    +0.157 C 
ATOM      3  N   UNL     1      46.249  80.505  39.698  0.00  0.00    -0.242 N 
ATOM      4  C   UNL     1      45.352  79.982  38.729  0.00  0.00    +0.253 C 
ATOM      5  O   UNL     1      45.002  80.162  37.536  0.00  0.00    -0.273 OA
ATOM      6  CA  UNL     1      47.372  81.419  39.907  0.00  0.00    +0.130 C 
ATOM      7  C   UNL     1      48.411  81.023  40.594  0.00  0.00    +0.011 C 
ATOM      8  C   UNL     1      48.567  79.660  41.214  0.00  0.00    +0.085 C 
ATOM      9  S   UNL     1      47.032  78.823  41.545  0.00  0.00    -0.114 S 
ENDROOT
BRANCH   1  12
ATOM     10  C   UNL     1      42.590  78.504  38.951  0.00  0.00    +0.288 C 
ATOM     11  O   UNL     1      42.555  78.983  37.786  0.00  0.00    -0.267 OA
ATOM     12  N   UNL     1      43.478  79.098  39.924  0.00  0.00    -0.190 NA
BRANCH  10  14
ATOM     13  N   UNL     1      42.134  76.741  40.443  0.00  0.00    -0.077 NA
ATOM     14  C   UNL     1      41.790  77.392  39.364  0.00  0.00    +0.192 C 
BRANCH  14  15
ATOM     15  C   UNL     1      40.589  76.975  38.594  0.00  0.00    +0.115 A 
ATOM     16  C   UNL     1      40.168  77.603  37.461  0.00  0.00    +0.059 A 
ATOM     17  S   UNL     1      38.763  76.673  37.052  0.00  0.00    -0.048 S 
ATOM     18  C   UNL     1      38.820  75.569  38.341  0.00  0.00    +0.201 A 
ATOM     19  N   UNL     1      39.880  75.952  39.004  0.00  0.00    -0.220 NA
ATOM     20  N   UNL     1      37.966  74.458  38.700  0.00  0.00    -0.100 NA
ENDBRANCH  14  15
BRANCH  13  22
ATOM     21  C   UNL     1      43.835  75.951  41.907  0.00  0.00    +0.288 C 
ATOM     22  O   UNL     1      43.464  76.738  40.773  0.00  0.00    -0.373 OA
ENDBRANCH  13  22
ENDBRANCH  10  14
ENDBRANCH   1  12
BRANCH   6  23
ATOM     23  C   UNL     1      47.230  82.719  39.308  0.00  0.00    +0.401 C 
ATOM     24  O   UNL     1      48.026  83.200  38.499  0.00  0.00    -0.239 OA
ATOM     25  OXT UNL     1      46.140  83.532  39.624  0.00  0.00    -0.239 OA
ENDBRANCH   6  23
BRANCH   7  26
ATOM     26  C   UNL     1      49.580  81.894  40.822  0.00  0.00    +0.150 C 
BRANCH  26  27
ATOM     27  N   UNL     1      49.235  83.012  41.708  0.00  0.00    -0.263 N 
ATOM     28  C   UNL     1      47.949  83.282  42.054  0.00  0.00    +0.097 A 
ATOM     29  C   UNL     1      47.958  84.366  42.871  0.00  0.00    +0.057 A 
ATOM     30  C   UNL     1      49.273  84.735  43.004  0.00  0.00    +0.167 A 
ATOM     31  N   UNL     1      50.040  83.879  42.274  0.00  0.00    -0.252 N 
ATOM     32  N   UNL     1      49.731  85.827  43.777  0.00  0.00    -0.108 NA
BRANCH  31  33
ATOM     33  C   UNL     1      51.493  83.930  42.153  0.00  0.00    +0.162 C 
BRANCH  33  34
ATOM     34  C   UNL     1      52.109  82.551  42.072  0.00  0.00    +0.208 C 
ATOM     35  O   UNL     1      53.137  82.528  43.040  0.00  0.00    -0.218 OA
ENDBRANCH  33  34
ENDBRANCH  31  33
ENDBRANCH  26  27
ENDBRANCH   7  26
TORSDOF 9
