REMARK  Name = Cefprozil
REMARK  5 active torsions:
REMARK  status: ('A' for Active; 'I' for Inactive)
REMARK    1  A    between atoms: C_3  and  C_4
REMARK    2  A    between atoms: CA_5  and  C_25
REMARK    3  A    between atoms: CA_8  and  N_11
REMARK    4  A    between atoms: C_12  and  CA_14
REMARK    5  A    between atoms: CA_14  and  C_15
REMARK                            x       y       z     vdW  Elec       q    Type
REMARK                         _______ _______ _______ _____ _____    ______ ____
ROOT
ATOM      1  C   UNL     1      47.795  81.201  40.574  0.00  0.00    +0.009 C 
ATOM      2  CA  UNL     1      46.822  81.784  39.925  0.00  0.00    +0.132 C 
ATOM      3  N   UNL     1      45.551  81.095  39.752  0.00  0.00    -0.242 N 
ATOM      4  C   UNL     1      44.747  80.600  40.864  0.00  0.00    +0.157 C 
ATOM      5  CA  UNL     1      43.979  79.706  39.916  0.00  0.00    +0.200 C 
ATOM      6  C   UNL     1      44.565  80.603  38.889  0.00  0.00    +0.253 C 
ATOM      7  O   UNL     1      44.229  80.797  37.677  0.00  0.00    -0.273 OA
ATOM      8  S   UNL     1      45.922  79.718  41.943  0.00  0.00    -0.114 S 
ATOM      9  C   UNL     1      47.469  79.715  41.020  0.00  0.00    +0.087 C 
ENDROOT
BRANCH   1  12
ATOM     10  C   UNL     1      50.991  83.146  41.741  0.00  0.00    +0.031 C 
ATOM     11  C   UNL     1      50.018  82.086  41.614  0.00  0.00    -0.026 C 
ATOM     12  C   UNL     1      49.091  81.666  40.883  0.00  0.00    -0.007 C 
ENDBRANCH   1  12
BRANCH   5  13
ATOM     13  N   UNL     1      44.337  78.330  39.874  0.00  0.00    -0.194 NA
ATOM     14  C   UNL     1      43.446  77.251  40.121  0.00  0.00    +0.264 C 
ATOM     15  O   UNL     1      43.146  76.999  41.314  0.00  0.00    -0.271 OA
BRANCH  14  16
ATOM     16  CA  UNL     1      42.846  76.401  39.062  0.00  0.00    +0.191 C 
ATOM     17  N   UNL     1      43.005  74.991  39.346  0.00  0.00    -0.118 NA
BRANCH  16  18
ATOM     18  C   UNL     1      41.458  76.763  38.746  0.00  0.00    +0.004 A 
ATOM     19  C   UNL     1      40.421  76.480  39.605  0.00  0.00    +0.001 A 
ATOM     20  C   UNL     1      39.111  76.831  39.287  0.00  0.00    +0.042 A 
ATOM     21  C   UNL     1      38.824  77.465  38.114  0.00  0.00    +0.196 A 
ATOM     22  C   UNL     1      39.845  77.756  37.243  0.00  0.00    +0.042 A 
ATOM     23  C   UNL     1      41.140  77.403  37.569  0.00  0.00    +0.001 A 
ATOM     24  O   UNL     1      37.522  77.813  37.799  0.00  0.00    -0.287 OA
ENDBRANCH  16  18
ENDBRANCH  14  16
ENDBRANCH   5  13
BRANCH   2  25
ATOM     25  C   UNL     1      46.995  83.036  39.234  0.00  0.00    +0.401 C 
ATOM     26  O   UNL     1      47.535  84.018  39.683  0.00  0.00    -0.239 OA
ATOM     27  OXT UNL     1      46.515  83.192  37.917  0.00  0.00    -0.239 OA
ENDBRANCH   2  25
TORSDOF 5
