REMARK  Name = Cefpiramide
REMARK  9 active torsions:
REMARK  status: ('A' for Active; 'I' for Inactive)
REMARK    1  A    between atoms: C_6  and  C_9
REMARK    2  A    between atoms: N_11  and  CA_12
REMARK    3  A    between atoms: CA_12  and  C_13
REMARK    4  A    between atoms: CA_12  and  C_20
REMARK    5  A    between atoms: N_22  and  CA_23
REMARK    6  A    between atoms: CA_28  and  C_40
REMARK    7  A    between atoms: C_29  and  C_32
REMARK    8  A    between atoms: C_32  and  S_33
REMARK    9  A    between atoms: S_33  and  C_34
REMARK                            x       y       z     vdW  Elec       q    Type
REMARK                         _______ _______ _______ _____ _____    ______ ____
ROOT
ATOM      1  C   UNL     1      43.431  78.445  38.617  0.00  0.00    +0.266 C 
ATOM      2  O   UNL     1      43.493  78.512  37.360  0.00  0.00    -0.271 OA
ATOM      3  N   UNL     1      44.428  79.154  39.333  0.00  0.00    -0.193 NA
ENDROOT
BRANCH   3   4
ATOM      4  CA  UNL     1      45.490  79.824  38.654  0.00  0.00    +0.200 C 
ATOM      5  C   UNL     1      46.790  80.024  39.354  0.00  0.00    +0.157 C 
ATOM      6  N   UNL     1      46.474  81.430  39.380  0.00  0.00    -0.242 N 
ATOM      7  C   UNL     1      45.380  81.298  38.504  0.00  0.00    +0.253 C 
ATOM      8  O   UNL     1      44.584  82.026  37.833  0.00  0.00    -0.273 OA
ATOM      9  CA  UNL     1      47.256  82.354  40.167  0.00  0.00    +0.129 C 
ATOM     10  C   UNL     1      47.448  82.099  41.462  0.00  0.00    -0.002 C 
ATOM     11  C   UNL     1      46.876  80.882  42.130  0.00  0.00    +0.083 C 
ATOM     12  S   UNL     1      46.959  79.466  41.040  0.00  0.00    -0.114 S 
BRANCH   9  13
ATOM     13  C   UNL     1      47.798  83.503  39.470  0.00  0.00    +0.401 C 
ATOM     14  O   UNL     1      47.045  84.208  38.737  0.00  0.00    -0.239 OA
ATOM     15  OXT UNL     1      49.099  83.900  39.535  0.00  0.00    -0.239 OA
ENDBRANCH   9  13
BRANCH  10  16
ATOM     16  C   UNL     1      48.141  83.070  42.320  0.00  0.00    +0.089 C 
BRANCH  16  17
ATOM     17  S   UNL     1      48.848  82.459  43.831  0.00  0.00    -0.070 S 
BRANCH  17  18
ATOM     18  C   UNL     1      50.100  83.471  44.553  0.00  0.00    +0.211 A 
ATOM     19  N   UNL     1      51.257  83.056  45.140  0.00  0.00    -0.101 NA
ATOM     20  N   UNL     1      51.896  84.118  45.595  0.00  0.00    -0.022 NA
ATOM     21  N   UNL     1      51.193  85.176  45.319  0.00  0.00    -0.042 NA
ATOM     22  N   UNL     1      50.095  84.814  44.686  0.00  0.00    -0.206 N 
ATOM     23  C   UNL     1      49.032  85.681  44.211  0.00  0.00    +0.158 C 
ENDBRANCH  17  18
ENDBRANCH  16  17
ENDBRANCH  10  16
ENDBRANCH   3   4
BRANCH   1  24
ATOM     24  CA  UNL     1      42.341  77.648  39.244  0.00  0.00    +0.195 C 
BRANCH  24  25
ATOM     25  C   UNL     1      42.806  76.810  40.365  0.00  0.00    +0.006 A 
ATOM     26  C   UNL     1      42.646  77.245  41.660  0.00  0.00    +0.001 A 
ATOM     27  C   UNL     1      43.084  76.453  42.700  0.00  0.00    +0.042 A 
ATOM     28  C   UNL     1      43.680  75.239  42.526  0.00  0.00    +0.196 A 
ATOM     29  C   UNL     1      43.844  74.796  41.217  0.00  0.00    +0.042 A 
ATOM     30  C   UNL     1      43.408  75.582  40.161  0.00  0.00    +0.001 A 
ATOM     31  O   UNL     1      44.121  74.439  43.600  0.00  0.00    -0.287 OA
ENDBRANCH  24  25
BRANCH  24  34
ATOM     32  C   UNL     1      40.443  76.303  38.382  0.00  0.00    +0.270 C 
ATOM     33  O   UNL     1      39.819  76.562  39.482  0.00  0.00    -0.268 OA
ATOM     34  N   UNL     1      41.741  76.794  38.182  0.00  0.00    -0.189 NA
BRANCH  32  40
ATOM     35  C   UNL     1      37.531  73.519  34.422  0.00  0.00    +0.052 C 
ATOM     36  C   UNL     1      38.297  74.237  35.467  0.00  0.00    +0.063 A 
ATOM     37  C   UNL     1      39.266  73.537  36.150  0.00  0.00    +0.057 A 
ATOM     38  C   UNL     1      39.999  74.179  37.134  0.00  0.00    +0.203 A 
ATOM     39  O   UNL     1      40.875  73.554  37.755  0.00  0.00    -0.286 OA
ATOM     40  C   UNL     1      39.740  75.504  37.403  0.00  0.00    +0.113 A 
ATOM     41  C   UNL     1      38.734  76.145  36.661  0.00  0.00    +0.106 A 
ATOM     42  N   UNL     1      38.037  75.509  35.715  0.00  0.00    -0.248 NA
ENDBRANCH  32  40
ENDBRANCH  24  34
ENDBRANCH   1  24
TORSDOF 9
