REMARK  Name = Cefroxadine
REMARK  5 active torsions:
REMARK  status: ('A' for Active; 'I' for Inactive)
REMARK    1  A    between atoms: O_2  and  C_3
REMARK    2  A    between atoms: CA_4  and  C_23
REMARK    3  A    between atoms: CA_7  and  N_10
REMARK    4  A    between atoms: C_11  and  CA_13
REMARK    5  A    between atoms: CA_13  and  C_14
REMARK                            x       y       z     vdW  Elec       q    Type
REMARK                         _______ _______ _______ _____ _____    ______ ____
ROOT
ATOM      1  C   UNL     1      49.606  83.792  42.604  0.00  0.00    +0.147 C 
ATOM      2  CA  UNL     1      49.994  82.600  42.172  0.00  0.00    +0.166 C 
ATOM      3  N   UNL     1      49.050  81.625  41.723  0.00  0.00    -0.239 N 
ATOM      4  C   UNL     1      47.828  81.354  42.500  0.00  0.00    +0.157 C 
ATOM      5  CA  UNL     1      47.312  80.750  41.210  0.00  0.00    +0.200 C 
ATOM      6  C   UNL     1      48.718  80.669  40.725  0.00  0.00    +0.253 C 
ATOM      7  O   UNL     1      49.350  80.034  39.822  0.00  0.00    -0.273 OA
ATOM      8  S   UNL     1      47.046  82.879  43.020  0.00  0.00    -0.110 S 
ATOM      9  C   UNL     1      48.188  84.237  42.666  0.00  0.00    +0.124 C 
ENDROOT
BRANCH   5  10
ATOM     10  N   UNL     1      46.463  81.637  40.478  0.00  0.00    -0.194 NA
ATOM     11  C   UNL     1      45.783  81.201  39.318  0.00  0.00    +0.263 C 
ATOM     12  O   UNL     1      46.284  81.449  38.189  0.00  0.00    -0.271 OA
BRANCH  11  13
ATOM     13  CA  UNL     1      44.495  80.460  39.428  0.00  0.00    +0.188 C 
ATOM     14  N   UNL     1      43.858  80.432  38.110  0.00  0.00    -0.119 NA
BRANCH  13  15
ATOM     15  C   UNL     1      44.711  79.081  39.938  0.00  0.00    -0.018 C 
ATOM     16  C   UNL     1      45.933  78.598  40.038  0.00  0.00    -0.028 C 
ATOM     17  C   UNL     1      46.153  77.217  40.548  0.00  0.00    +0.051 C 
ATOM     18  C   UNL     1      45.153  76.986  41.621  0.00  0.00    -0.026 C 
ATOM     19  C   UNL     1      43.926  77.471  41.526  0.00  0.00    -0.026 C 
ATOM     20  C   UNL     1      43.530  78.263  40.330  0.00  0.00    +0.049 C 
ENDBRANCH  13  15
ENDBRANCH  11  13
ENDBRANCH   5  10
BRANCH   2  21
ATOM     21  C   UNL     1      51.437  82.275  42.151  0.00  0.00    +0.404 C 
ATOM     22  O   UNL     1      51.889  81.131  42.278  0.00  0.00    -0.239 OA
ATOM     23  OXT UNL     1      52.355  83.303  41.981  0.00  0.00    -0.239 OA
ENDBRANCH   2  21
BRANCH   1  25
ATOM     24  C   UNL     1      50.350  85.577  44.069  0.00  0.00    +0.252 C 
ATOM     25  O   UNL     1      50.585  84.666  43.018  0.00  0.00    -0.473 OA
ENDBRANCH   1  25
TORSDOF 5
