REMARK  Name = Cefradine
REMARK  4 active torsions:
REMARK  status: ('A' for Active; 'I' for Inactive)
REMARK    1  A    between atoms: CA_3  and  C_22
REMARK    2  A    between atoms: CA_6  and  N_9
REMARK    3  A    between atoms: C_10  and  CA_12
REMARK    4  A    between atoms: CA_12  and  C_13
REMARK                            x       y       z     vdW  Elec       q    Type
REMARK                         _______ _______ _______ _____ _____    ______ ____
ROOT
ATOM      1  C   UNL     1      51.108  84.830  43.829  0.00  0.00    +0.029 C 
ATOM      2  C   UNL     1      50.013  84.163  43.114  0.00  0.00    -0.013 C 
ATOM      3  CA  UNL     1      50.266  83.043  42.462  0.00  0.00    +0.128 C 
ATOM      4  N   UNL     1      49.204  82.356  41.744  0.00  0.00    -0.242 N 
ATOM      5  C   UNL     1      47.936  82.155  42.377  0.00  0.00    +0.157 C 
ATOM      6  CA  UNL     1      47.398  81.868  40.983  0.00  0.00    +0.200 C 
ATOM      7  C   UNL     1      48.820  81.707  40.531  0.00  0.00    +0.253 C 
ATOM      8  O   UNL     1      49.431  81.230  39.551  0.00  0.00    -0.273 OA
ATOM      9  S   UNL     1      47.312  83.648  43.136  0.00  0.00    -0.114 S 
ATOM     10  C   UNL     1      48.682  84.815  43.168  0.00  0.00    +0.083 C 
ENDROOT
BRANCH   6  11
ATOM     11  N   UNL     1      46.731  80.589  40.857  0.00  0.00    -0.194 NA
ATOM     12  C   UNL     1      45.893  80.388  39.730  0.00  0.00    +0.263 C 
ATOM     13  O   UNL     1      45.402  81.363  39.084  0.00  0.00    -0.271 OA
BRANCH  12  14
ATOM     14  CA  UNL     1      45.574  79.006  39.286  0.00  0.00    +0.188 C 
ATOM     15  N   UNL     1      46.286  78.023  40.059  0.00  0.00    -0.119 NA
BRANCH  14  16
ATOM     16  C   UNL     1      44.099  78.771  39.351  0.00  0.00    -0.018 C 
ATOM     17  C   UNL     1      43.606  77.996  40.304  0.00  0.00    -0.028 C 
ATOM     18  C   UNL     1      42.126  77.745  40.390  0.00  0.00    +0.051 C 
ATOM     19  C   UNL     1      41.660  77.603  38.975  0.00  0.00    -0.026 C 
ATOM     20  C   UNL     1      42.144  78.371  38.014  0.00  0.00    -0.026 C 
ATOM     21  C   UNL     1      43.168  79.386  38.368  0.00  0.00    +0.049 C 
ENDBRANCH  14  16
ENDBRANCH  12  14
ENDBRANCH   6  11
BRANCH   3  22
ATOM     22  C   UNL     1      51.611  82.487  42.440  0.00  0.00    +0.401 C 
ATOM     23  O   UNL     1      52.492  83.053  41.773  0.00  0.00    -0.239 OA
ATOM     24  OXT UNL     1      52.001  81.345  43.122  0.00  0.00    -0.239 OA
ENDBRANCH   3  22
TORSDOF 4
