REMARK  Name = Cefsulodin
REMARK  8 active torsions:
REMARK  status: ('A' for Active; 'I' for Inactive)
REMARK    1  A    between atoms: C_2  and  C_27
REMARK    2  A    between atoms: CA_3  and  C_24
REMARK    3  A    between atoms: CA_7  and  N_10
REMARK    4  A    between atoms: C_11  and  C_13
REMARK    5  A    between atoms: C_13  and  C_14
REMARK    6  A    between atoms: C_13  and  S_20
REMARK    7  A    between atoms: C_27  and  N_28
REMARK    8  A    between atoms: C_31  and  C_34
REMARK                            x       y       z     vdW  Elec       q    Type
REMARK                         _______ _______ _______ _____ _____    ______ ____
ROOT
ATOM      1  C   UNL     1      44.238  77.524  39.887  0.00  0.00    +0.084 C 
ATOM      2  C   UNL     1      44.289  78.677  38.938  0.00  0.00    +0.009 C 
ATOM      3  CA  UNL     1      45.005  79.773  39.084  0.00  0.00    +0.130 C 
ATOM      4  N   UNL     1      45.856  79.956  40.244  0.00  0.00    -0.242 N 
ATOM      5  C   UNL     1      46.674  78.841  40.692  0.00  0.00    +0.157 C 
ATOM      6  S   UNL     1      45.498  77.559  41.164  0.00  0.00    -0.114 S 
ATOM      7  CA  UNL     1      47.130  79.741  41.806  0.00  0.00    +0.200 C 
ATOM      8  C   UNL     1      46.304  80.838  41.264  0.00  0.00    +0.253 C 
ATOM      9  O   UNL     1      46.108  82.056  41.606  0.00  0.00    -0.273 OA
ENDROOT
BRANCH   7  10
ATOM     10  N   UNL     1      48.539  80.048  41.655  0.00  0.00    -0.193 NA
ATOM     11  C   UNL     1      49.050  81.392  41.693  0.00  0.00    +0.271 C 
ATOM     12  O   UNL     1      48.913  82.136  40.695  0.00  0.00    -0.271 OA
BRANCH  11  13
ATOM     13  C   UNL     1      49.738  81.922  42.889  0.00  0.00    +0.259 C 
BRANCH  13  14
ATOM     14  C   UNL     1      49.343  83.290  43.224  0.00  0.00    +0.011 A 
ATOM     15  C   UNL     1      50.255  84.317  43.307  0.00  0.00    -0.002 A 
ATOM     16  C   UNL     1      49.873  85.615  43.624  0.00  0.00    -0.000 A 
ATOM     17  C   UNL     1      48.558  85.901  43.865  0.00  0.00    -0.000 A 
ATOM     18  C   UNL     1      47.637  84.885  43.786  0.00  0.00    -0.000 A 
ATOM     19  C   UNL     1      48.029  83.603  43.470  0.00  0.00    -0.002 A 
ENDBRANCH  13  14
BRANCH  13  20
ATOM     20  S   UNL     1      51.479  81.728  42.688  0.00  0.00    +0.132 S 
ATOM     21  O   UNL     1      51.868  82.504  41.437  0.00  0.00    -0.144 OA
ATOM     22  O   UNL     1      52.269  82.293  43.811  0.00  0.00    -0.144 OA
ATOM     23  O   UNL     1      51.856  80.115  42.377  0.00  0.00    -0.046 OA
ENDBRANCH  13  20
ENDBRANCH  11  13
ENDBRANCH   7  10
BRANCH   3  24
ATOM     24  C   UNL     1      44.971  80.912  38.159  0.00  0.00    +0.401 C 
ATOM     25  O   UNL     1      46.088  81.466  37.852  0.00  0.00    -0.239 OA
ATOM     26  OXT UNL     1      43.875  81.472  37.570  0.00  0.00    -0.239 OA
ENDBRANCH   3  24
BRANCH   2  27
ATOM     27  C   UNL     1      43.452  78.468  37.721  0.00  0.00    +0.131 C 
BRANCH  27  28
ATOM     28  N   UNL     1      42.143  77.950  38.148  0.00  0.00    -0.321 N 
ATOM     29  C   UNL     1      42.032  77.016  39.103  0.00  0.00    +0.076 A 
ATOM     30  C   UNL     1      40.770  76.566  39.467  0.00  0.00    +0.023 A 
ATOM     31  C   UNL     1      39.636  77.042  38.885  0.00  0.00    +0.060 A 
ATOM     32  C   UNL     1      39.754  77.996  37.909  0.00  0.00    +0.023 A 
ATOM     33  C   UNL     1      41.024  78.418  37.575  0.00  0.00    +0.076 A 
BRANCH  31  34
ATOM     34  C   UNL     1      38.323  76.561  39.276  0.00  0.00    +0.284 C 
ATOM     35  O   UNL     1      37.272  77.040  38.786  0.00  0.00    -0.267 OA
ATOM     36  N   UNL     1      38.222  75.522  40.238  0.00  0.00    -0.084 NA
ENDBRANCH  31  34
ENDBRANCH  27  28
ENDBRANCH   2  27
TORSDOF 8
