REMARK  Name = Ceftezole
REMARK  7 active torsions:
REMARK  status: ('A' for Active; 'I' for Inactive)
REMARK    1  A    between atoms: C_2  and  C_22
REMARK    2  A    between atoms: CA_3  and  C_19
REMARK    3  A    between atoms: CA_7  and  N_10
REMARK    4  A    between atoms: C_11  and  C_13
REMARK    5  A    between atoms: C_13  and  N_14
REMARK    6  A    between atoms: C_22  and  S_23
REMARK    7  A    between atoms: S_23  and  C_24
REMARK                            x       y       z     vdW  Elec       q    Type
REMARK                         _______ _______ _______ _____ _____    ______ ____
ROOT
ATOM      1  C   UNL     1      46.620  78.991  41.547  0.00  0.00    +0.083 C 
ATOM      2  C   UNL     1      46.745  80.370  40.928  0.00  0.00    -0.002 C 
ATOM      3  CA  UNL     1      45.861  80.831  40.075  0.00  0.00    +0.129 C 
ATOM      4  N   UNL     1      44.733  80.010  39.709  0.00  0.00    -0.242 N 
ATOM      5  C   UNL     1      43.881  79.404  40.754  0.00  0.00    +0.157 C 
ATOM      6  S   UNL     1      44.900  78.870  42.136  0.00  0.00    -0.114 S 
ATOM      7  CA  UNL     1      43.751  78.265  39.723  0.00  0.00    +0.200 C 
ATOM      8  C   UNL     1      43.883  79.386  38.785  0.00  0.00    +0.253 C 
ATOM      9  O   UNL     1      43.475  79.759  37.633  0.00  0.00    -0.273 OA
ENDROOT
BRANCH   7  10
ATOM     10  N   UNL     1      42.489  77.599  39.810  0.00  0.00    -0.193 NA
ATOM     11  C   UNL     1      42.045  76.805  38.702  0.00  0.00    +0.267 C 
ATOM     12  O   UNL     1      42.380  75.591  38.654  0.00  0.00    -0.271 OA
BRANCH  11  13
ATOM     13  C   UNL     1      41.208  77.449  37.660  0.00  0.00    +0.217 C 
BRANCH  13  14
ATOM     14  N   UNL     1      40.492  76.535  36.825  0.00  0.00    -0.201 N 
ATOM     15  C   UNL     1      41.030  75.549  36.089  0.00  0.00    +0.222 A 
ATOM     16  N   UNL     1      40.029  74.892  35.437  0.00  0.00    -0.105 NA
ATOM     17  N   UNL     1      38.904  75.490  35.788  0.00  0.00    -0.023 NA
ATOM     18  N   UNL     1      39.197  76.451  36.605  0.00  0.00    -0.042 NA
ENDBRANCH  13  14
ENDBRANCH  11  13
ENDBRANCH   7  10
BRANCH   3  19
ATOM     19  C   UNL     1      45.884  82.148  39.488  0.00  0.00    +0.401 C 
ATOM     20  O   UNL     1      46.957  82.797  39.222  0.00  0.00    -0.239 OA
ATOM     21  OXT UNL     1      44.741  82.817  39.156  0.00  0.00    -0.239 OA
ENDBRANCH   3  19
BRANCH   2  22
ATOM     22  C   UNL     1      47.918  81.135  41.324  0.00  0.00    +0.088 C 
BRANCH  22  23
ATOM     23  S   UNL     1      47.471  82.557  42.371  0.00  0.00    -0.082 S 
BRANCH  23  24
ATOM     24  C   UNL     1      49.000  83.317  42.938  0.00  0.00    +0.160 A 
ATOM     25  N   UNL     1      50.252  83.143  42.551  0.00  0.00    -0.134 NA
ATOM     26  N   UNL     1      51.181  83.795  43.103  0.00  0.00    -0.138 NA
ATOM     27  C   UNL     1      50.919  84.656  44.071  0.00  0.00    +0.160 A 
ATOM     28  S   UNL     1      49.218  84.504  44.177  0.00  0.00    -0.037 S 
ENDBRANCH  23  24
ENDBRANCH  22  23
ENDBRANCH   2  22
TORSDOF 7
