REMARK  Name = Cefteram_pivoxil
REMARK  12 active torsions:
REMARK  status: ('A' for Active; 'I' for Inactive)
REMARK    1  A    between atoms: N_4  and  C_7
REMARK    2  A    between atoms: C_7  and  C_8
REMARK    3  A    between atoms: C_9  and  C_30
REMARK    4  A    between atoms: C_12  and  N_15
REMARK    5  A    between atoms: C_16  and  C_18
REMARK    6  A    between atoms: C_18  and  C_22
REMARK    7  A    between atoms: N_19  and  O_20
REMARK    8  A    between atoms: C_30  and  O_32
REMARK    9  A    between atoms: O_32  and  C_33
REMARK   10  A    between atoms: C_33  and  O_34
REMARK   11  A    between atoms: O_34  and  C_35
REMARK   12  A    between atoms: C_35  and  C_37
REMARK                            x       y       z     vdW  Elec       q    Type
REMARK                         _______ _______ _______ _____ _____    ______ ____
ROOT
ATOM      1  C   UNL     1      45.825  76.070  44.179  0.00  0.00    +0.013 C 
ATOM      2  C   UNL     1      46.222  77.320  44.039  0.00  0.00    +0.126 C 
ATOM      3  N   UNL     1      45.590  78.105  43.000  0.00  0.00    -0.242 N 
ATOM      4  C   UNL     1      44.156  78.231  42.834  0.00  0.00    +0.157 C 
ATOM      5  C   UNL     1      44.324  78.751  41.429  0.00  0.00    +0.201 C 
ATOM      6  C   UNL     1      45.737  78.948  41.889  0.00  0.00    +0.253 C 
ATOM      7  O   UNL     1      46.653  79.645  41.386  0.00  0.00    -0.273 OA
ATOM      8  S   UNL     1      43.447  76.579  42.914  0.00  0.00    -0.114 S 
ATOM      9  C   UNL     1      44.791  75.462  43.258  0.00  0.00    +0.085 C 
ENDROOT
BRANCH   5  10
ATOM     10  N   UNL     1      44.266  77.808  40.362  0.00  0.00    -0.190 NA
ATOM     11  C   UNL     1      43.776  78.161  39.049  0.00  0.00    +0.288 C 
ATOM     12  O   UNL     1      43.313  77.190  38.405  0.00  0.00    -0.267 OA
BRANCH  11  13
ATOM     13  C   UNL     1      43.836  79.516  38.569  0.00  0.00    +0.192 C 
ATOM     14  N   UNL     1      42.873  79.897  37.767  0.00  0.00    -0.077 NA
BRANCH  13  15
ATOM     15  C   UNL     1      44.929  80.454  38.945  0.00  0.00    +0.115 A 
ATOM     16  C   UNL     1      45.616  80.343  40.122  0.00  0.00    +0.059 A 
ATOM     17  S   UNL     1      46.726  81.663  39.997  0.00  0.00    -0.048 S 
ATOM     18  C   UNL     1      46.234  82.250  38.470  0.00  0.00    +0.201 A 
ATOM     19  N   UNL     1      45.270  81.424  38.144  0.00  0.00    -0.220 NA
ATOM     20  N   UNL     1      46.759  83.370  37.740  0.00  0.00    -0.100 NA
ENDBRANCH  13  15
BRANCH  14  21
ATOM     21  O   UNL     1      41.937  78.993  37.312  0.00  0.00    -0.373 OA
ATOM     22  C   UNL     1      40.820  79.338  36.544  0.00  0.00    +0.288 C 
ENDBRANCH  14  21
ENDBRANCH  11  13
ENDBRANCH   5  10
BRANCH   2  23
ATOM     23  C   UNL     1      47.253  77.971  44.831  0.00  0.00    +0.357 C 
ATOM     24  O   UNL     1      47.145  78.069  46.105  0.00  0.00    -0.243 OA
BRANCH  23  25
ATOM     25  O   UNL     1      48.374  78.508  44.311  0.00  0.00    -0.404 OA
BRANCH  25  26
ATOM     26  C   UNL     1      49.022  79.677  44.771  0.00  0.00    +0.433 C 
BRANCH  26  27
ATOM     27  O   UNL     1      48.781  80.700  43.826  0.00  0.00    -0.408 OA
BRANCH  27  28
ATOM     28  C   UNL     1      49.456  81.884  43.949  0.00  0.00    +0.319 C 
ATOM     29  O   UNL     1      50.204  82.050  44.959  0.00  0.00    -0.250 OA
BRANCH  28  30
ATOM     30  C   UNL     1      49.302  82.935  42.911  0.00  0.00    +0.090 C 
ATOM     31  C   UNL     1      50.385  83.974  43.142  0.00  0.00    +0.011 C 
ATOM     32  C   UNL     1      49.458  82.280  41.560  0.00  0.00    +0.011 C 
ATOM     33  C   UNL     1      47.927  83.532  43.043  0.00  0.00    +0.011 C 
ENDBRANCH  28  30
ENDBRANCH  27  28
ENDBRANCH  26  27
ENDBRANCH  25  26
ENDBRANCH  23  25
ENDBRANCH   2  23
BRANCH   1  34
ATOM     34  C   UNL     1      46.382  75.178  45.194  0.00  0.00    +0.176 C 
BRANCH  34  38
ATOM     35  C   UNL     1      43.256  75.315  49.112  0.00  0.00    +0.078 C 
ATOM     36  C   UNL     1      44.424  75.497  48.221  0.00  0.00    +0.184 A 
ATOM     37  N   UNL     1      44.578  75.049  46.942  0.00  0.00    -0.134 NA
ATOM     38  N   UNL     1      45.764  75.424  46.510  0.00  0.00    -0.147 N 
ATOM     39  N   UNL     1      46.361  76.092  47.473  0.00  0.00    -0.045 NA
ATOM     40  N   UNL     1      45.564  76.150  48.526  0.00  0.00    -0.112 NA
ENDBRANCH  34  38
ENDBRANCH   1  34
TORSDOF 12
