REMARK  Name = Ceftiofur
REMARK  9 active torsions:
REMARK  status: ('A' for Active; 'I' for Inactive)
REMARK    1  A    between atoms: O_2  and  N_3
REMARK    2  A    between atoms: C_4  and  C_5
REMARK    3  A    between atoms: C_4  and  C_11
REMARK    4  A    between atoms: N_13  and  CA_14
REMARK    5  A    between atoms: CA_19  and  C_32
REMARK    6  A    between atoms: C_20  and  C_23
REMARK    7  A    between atoms: C_23  and  S_24
REMARK    8  A    between atoms: S_24  and  C_25
REMARK    9  A    between atoms: C_25  and  C_27
REMARK                            x       y       z     vdW  Elec       q    Type
REMARK                         _______ _______ _______ _____ _____    ______ ____
ROOT
ATOM      1  CA  UNL     1      44.874  78.801  38.783  0.00  0.00    +0.201 C 
ATOM      2  C   UNL     1      46.256  78.943  39.317  0.00  0.00    +0.157 C 
ATOM      3  N   UNL     1      46.113  80.360  39.259  0.00  0.00    -0.242 N 
ATOM      4  C   UNL     1      45.060  80.194  38.353  0.00  0.00    +0.253 C 
ATOM      5  O   UNL     1      44.413  80.856  37.465  0.00  0.00    -0.273 OA
ATOM      6  CA  UNL     1      46.910  81.344  39.965  0.00  0.00    +0.129 C 
ATOM      7  C   UNL     1      47.040  81.192  41.251  0.00  0.00    -0.002 C 
ATOM      8  C   UNL     1      46.336  80.024  41.943  0.00  0.00    +0.083 C 
ATOM      9  S   UNL     1      46.475  78.490  41.051  0.00  0.00    -0.114 S 
ENDROOT
BRANCH   1  12
ATOM     10  C   UNL     1      42.491  78.351  39.497  0.00  0.00    +0.288 C 
ATOM     11  O   UNL     1      41.741  79.426  39.291  0.00  0.00    -0.267 OA
ATOM     12  N   UNL     1      43.807  78.742  39.797  0.00  0.00    -0.190 NA
BRANCH  10  14
ATOM     13  N   UNL     1      42.185  76.225  40.354  0.00  0.00    -0.077 NA
ATOM     14  C   UNL     1      41.877  77.084  39.387  0.00  0.00    +0.192 C 
BRANCH  14  15
ATOM     15  C   UNL     1      40.953  76.527  38.393  0.00  0.00    +0.115 A 
ATOM     16  C   UNL     1      40.620  77.133  37.215  0.00  0.00    +0.059 A 
ATOM     17  S   UNL     1      39.525  75.973  36.521  0.00  0.00    -0.048 S 
ATOM     18  C   UNL     1      39.571  74.819  37.762  0.00  0.00    +0.201 A 
ATOM     19  N   UNL     1      40.391  75.358  38.615  0.00  0.00    -0.220 NA
ATOM     20  N   UNL     1      38.882  73.542  37.866  0.00  0.00    -0.100 NA
ENDBRANCH  14  15
BRANCH  13  22
ATOM     21  C   UNL     1      43.869  75.543  42.015  0.00  0.00    +0.288 C 
ATOM     22  O   UNL     1      43.350  76.382  41.020  0.00  0.00    -0.373 OA
ENDBRANCH  13  22
ENDBRANCH  10  14
ENDBRANCH   1  12
BRANCH   6  23
ATOM     23  C   UNL     1      47.298  82.519  39.191  0.00  0.00    +0.401 C 
ATOM     24  O   UNL     1      46.396  83.315  38.730  0.00  0.00    -0.239 OA
ATOM     25  OXT UNL     1      48.562  82.915  38.885  0.00  0.00    -0.239 OA
ENDBRANCH   6  23
BRANCH   7  26
ATOM     26  C   UNL     1      47.955  81.927  42.112  0.00  0.00    +0.090 C 
BRANCH  26  27
ATOM     27  S   UNL     1      49.588  81.313  42.355  0.00  0.00    -0.065 S 
BRANCH  27  28
ATOM     28  C   UNL     1      50.859  82.521  42.103  0.00  0.00    +0.256 C 
ATOM     29  O   UNL     1      51.587  82.432  41.083  0.00  0.00    -0.276 OA
BRANCH  28  30
ATOM     30  C   UNL     1      51.047  83.590  43.064  0.00  0.00    +0.190 A 
ATOM     31  C   UNL     1      52.086  84.526  43.030  0.00  0.00    +0.045 A 
ATOM     32  C   UNL     1      51.885  85.340  44.105  0.00  0.00    +0.044 A 
ATOM     33  C   UNL     1      50.763  84.904  44.759  0.00  0.00    +0.180 A 
ATOM     34  O   UNL     1      50.303  83.862  44.101  0.00  0.00    -0.447 OA
ENDBRANCH  28  30
ENDBRANCH  27  28
ENDBRANCH  26  27
ENDBRANCH   7  26
TORSDOF 9
