REMARK  Name = Ceftizoxime
REMARK  5 active torsions:
REMARK  status: ('A' for Active; 'I' for Inactive)
REMARK    1  A    between atoms: O_2  and  N_3
REMARK    2  A    between atoms: C_4  and  C_5
REMARK    3  A    between atoms: C_4  and  C_11
REMARK    4  A    between atoms: N_13  and  C_14
REMARK    5  A    between atoms: C_19  and  C_23
REMARK                            x       y       z     vdW  Elec       q    Type
REMARK                         _______ _______ _______ _____ _____    ______ ____
ROOT
ATOM      1  C   UNK A   0      44.518  78.337  39.690  0.00  0.00    +0.288 C 
ATOM      2  O   UNK A   0      45.600  77.709  39.402  0.00  0.00    -0.267 OA
ATOM      3  N   UNK A   2      43.671  77.572  40.540  0.00  0.00    -0.190 NA
ENDROOT
BRANCH   3   4
ATOM      4  C   UNK A   2      44.182  76.466  41.333  0.00  0.00    +0.201 C 
ATOM      5  C   UNK A   2      43.153  75.688  42.097  0.00  0.00    +0.157 C 
ATOM      6  N   UNK A   2      44.132  75.656  43.158  0.00  0.00    -0.242 N 
ATOM      7  C   UNK A   2      44.557  76.911  42.697  0.00  0.00    +0.253 C 
ATOM      8  O   UNK A   2      45.038  77.922  43.267  0.00  0.00    -0.273 OA
ATOM      9  C   UNK A   2      44.307  74.633  44.084  0.00  0.00    +0.132 C 
ATOM     10  C   UNK A   2      44.062  73.382  43.757  0.00  0.00    +0.007 C 
ATOM     11  C   UNK A   2      43.603  72.899  42.471  0.00  0.00    +0.087 C 
ATOM     12  S   UNK A   2      42.929  74.068  41.329  0.00  0.00    -0.114 S 
BRANCH   9  13
ATOM     13  C   UNK A   2      44.770  74.868  45.467  0.00  0.00    +0.401 C 
ATOM     14  O   UNK A   2      44.116  74.522  46.471  0.00  0.00    -0.239 OA
ATOM     15  O   UNK A   2      45.996  75.508  45.625  0.00  0.00    -0.239 OA
ENDBRANCH   9  13
ENDBRANCH   3   4
BRANCH   1  17
ATOM     16  N   UNK A   0      43.209  79.967  38.475  0.00  0.00    -0.077 NA
ATOM     17  C   UNK A   0      44.223  79.665  39.191  0.00  0.00    +0.192 C 
BRANCH  17  18
ATOM     18  C   UNK A   0      45.187  80.768  39.548  0.00  0.00    +0.115 A 
ATOM     19  C   UNK A   0      45.913  80.813  40.692  0.00  0.00    +0.059 A 
ATOM     20  S   UNK A   0      46.793  82.300  40.483  0.00  0.00    -0.048 S 
ATOM     21  C   UNK A   0      46.168  82.737  38.968  0.00  0.00    +0.201 A 
ATOM     22  N   UNK A   0      45.343  81.757  38.702  0.00  0.00    -0.220 NA
ATOM     23  N   UNK A   0      46.499  83.910  38.207  0.00  0.00    -0.100 NA
ENDBRANCH  17  18
BRANCH  16  25
ATOM     24  C   UNK A   0      41.024  79.509  37.499  0.00  0.00    +0.288 C 
ATOM     25  O   UNK A   0      42.225  79.135  38.147  0.00  0.00    -0.373 OA
ENDBRANCH  16  25
ENDBRANCH   1  17
TORSDOF 5
