REMARK  Name = Ceftibuten
REMARK  6 active torsions:
REMARK  status: ('A' for Active; 'I' for Inactive)
REMARK    1  A    between atoms: CA_3  and  C_25
REMARK    2  A    between atoms: CA_7  and  N_10
REMARK    3  A    between atoms: C_11  and  C_13
REMARK    4  A    between atoms: C_13  and  C_19
REMARK    5  A    between atoms: C_14  and  C_15
REMARK    6  A    between atoms: C_15  and  C_16
REMARK                            x       y       z     vdW  Elec       q    Type
REMARK                         _______ _______ _______ _____ _____    ______ ____
ROOT
ATOM      1  N   UNL     1      44.811  78.412  40.379  0.00  0.00    -0.191 NA
ATOM      2  C   UNL     1      44.108  77.563  41.255  0.00  0.00    +0.266 C 
ATOM      3  O   UNL     1      44.369  77.804  42.501  0.00  0.00    -0.268 OA
ENDROOT
BRANCH   1  10
ATOM      4  CG  UNL     1      48.782  80.494  41.220  0.00  0.00    +0.087 C 
ATOM      5  CB  UNL     1      48.577  81.496  40.172  0.00  0.00    +0.007 C 
ATOM      6  CA  UNL     1      47.478  81.764  39.484  0.00  0.00    +0.132 C 
ATOM      7  N   UNL     1      46.261  81.083  39.668  0.00  0.00    -0.242 N 
ATOM      8  CE  UNL     1      45.908  80.571  40.988  0.00  0.00    +0.157 C 
ATOM      9  SD  UNL     1      47.307  79.480  41.428  0.00  0.00    -0.114 S 
ATOM     10  CA  UNL     1      44.711  79.863  40.456  0.00  0.00    +0.200 C 
ATOM     11  C   UNL     1      45.051  80.564  39.182  0.00  0.00    +0.253 C 
ATOM     12  O   UNL     1      44.375  80.597  38.094  0.00  0.00    -0.273 OA
BRANCH   6  13
ATOM     13  C   UNL     1      47.502  82.831  38.452  0.00  0.00    +0.401 C 
ATOM     14  O   UNL     1      48.580  83.431  38.177  0.00  0.00    -0.239 OA
ATOM     15  OXT UNL     1      46.336  83.150  37.804  0.00  0.00    -0.239 OA
ENDBRANCH   6  13
ENDBRANCH   1  10
BRANCH   2  16
ATOM     16  C   UNL     1      43.184  76.509  40.926  0.00  0.00    +0.070 C 
ATOM     17  C   UNL     1      43.011  75.384  41.527  0.00  0.00    -0.008 C 
BRANCH  16  18
ATOM     18  C   UNL     1      42.277  76.698  39.725  0.00  0.00    +0.094 A 
ATOM     19  C   UNL     1      42.291  77.800  38.949  0.00  0.00    +0.057 A 
ATOM     20  S   UNL     1      41.051  77.422  37.780  0.00  0.00    -0.048 S 
ATOM     21  C   UNL     1      40.626  75.897  38.384  0.00  0.00    +0.201 A 
ATOM     22  N   UNL     1      41.422  75.748  39.414  0.00  0.00    -0.221 NA
ATOM     23  N   UNL     1      39.653  74.915  37.959  0.00  0.00    -0.100 NA
ENDBRANCH  16  18
BRANCH  17  24
ATOM     24  C   UNL     1      42.063  74.315  41.473  0.00  0.00    +0.140 C 
BRANCH  24  25
ATOM     25  C   UNL     1      42.426  73.295  42.514  0.00  0.00    +0.369 C 
ATOM     26  O   UNL     1      41.554  72.915  43.307  0.00  0.00    -0.245 OA
ATOM     27  O   UNL     1      43.717  72.796  42.573  0.00  0.00    -0.245 OA
ENDBRANCH  24  25
ENDBRANCH  17  24
ENDBRANCH   2  16
TORSDOF 6
