REMARK  Name = Ceftriaxone
REMARK  8 active torsions:
REMARK  status: ('A' for Active; 'I' for Inactive)
REMARK    1  A    between atoms: C_3  and  S_10
REMARK    2  A    between atoms: S_10  and  C_11
REMARK    3  A    between atoms: C_11  and  C_12
REMARK    4  A    between atoms: CA_13  and  C_34
REMARK    5  A    between atoms: CA_16  and  N_19
REMARK    6  A    between atoms: C_20  and  C_22
REMARK    7  A    between atoms: C_22  and  C_26
REMARK    8  A    between atoms: N_23  and  O_24
REMARK                            x       y       z     vdW  Elec       q    Type
REMARK                         _______ _______ _______ _____ _____    ______ ____
ROOT
ATOM      1  C   UNL     1      46.226  80.276  41.071  0.00  0.00    -0.002 C 
ATOM      2  CA  UNL     1      45.614  80.751  40.046  0.00  0.00    +0.129 C 
ATOM      3  N   UNL     1      44.395  80.192  39.492  0.00  0.00    -0.242 N 
ATOM      4  C   UNL     1      43.500  79.377  40.214  0.00  0.00    +0.157 C 
ATOM      5  CA  UNL     1      43.190  78.694  38.884  0.00  0.00    +0.201 C 
ATOM      6  C   UNL     1      43.523  80.047  38.390  0.00  0.00    +0.253 C 
ATOM      7  O   UNL     1      43.177  80.779  37.396  0.00  0.00    -0.273 OA
ATOM      8  S   UNL     1      44.277  78.308  41.417  0.00  0.00    -0.114 S 
ATOM      9  C   UNL     1      45.790  79.033  41.845  0.00  0.00    +0.083 C 
ENDROOT
BRANCH   5  10
ATOM     10  N   UNL     1      41.769  78.349  38.854  0.00  0.00    -0.190 NA
ATOM     11  C   UNL     1      41.395  77.056  38.454  0.00  0.00    +0.288 C 
ATOM     12  O   UNL     1      42.187  76.126  38.833  0.00  0.00    -0.267 OA
BRANCH  11  13
ATOM     13  C   UNL     1      40.221  76.784  37.684  0.00  0.00    +0.192 C 
ATOM     14  N   UNL     1      39.456  77.788  37.400  0.00  0.00    -0.077 NA
BRANCH  13  15
ATOM     15  C   UNL     1      39.848  75.443  37.204  0.00  0.00    +0.115 A 
ATOM     16  C   UNL     1      40.779  74.405  37.258  0.00  0.00    +0.059 A 
ATOM     17  S   UNL     1      39.895  73.101  36.606  0.00  0.00    -0.048 S 
ATOM     18  C   UNL     1      38.427  73.911  36.303  0.00  0.00    +0.201 A 
ATOM     19  N   UNL     1      38.688  75.130  36.715  0.00  0.00    -0.220 NA
ATOM     20  N   UNL     1      37.195  73.402  35.723  0.00  0.00    -0.100 NA
ENDBRANCH  13  15
BRANCH  14  21
ATOM     21  O   UNL     1      39.677  79.002  37.987  0.00  0.00    -0.373 OA
ATOM     22  C   UNL     1      38.807  80.078  37.702  0.00  0.00    +0.288 C 
ENDBRANCH  14  21
ENDBRANCH  11  13
ENDBRANCH   5  10
BRANCH   2  23
ATOM     23  C   UNL     1      46.199  81.758  39.171  0.00  0.00    +0.401 C 
ATOM     24  O   UNL     1      45.483  82.395  38.312  0.00  0.00    -0.239 OA
ATOM     25  OXT UNL     1      47.502  82.114  39.150  0.00  0.00    -0.239 OA
ENDBRANCH   2  23
BRANCH   1  26
ATOM     26  C   UNL     1      47.451  80.792  41.711  0.00  0.00    +0.089 C 
BRANCH  26  27
ATOM     27  S   UNL     1      47.654  82.296  42.483  0.00  0.00    -0.071 S 
BRANCH  27  30
ATOM     28  C   UNL     1      48.312  85.238  43.402  0.00  0.00    +0.156 C 
ATOM     29  N   UNL     1      49.373  84.286  43.188  0.00  0.00    -0.224 N 
ATOM     30  C   UNL     1      49.195  83.026  42.810  0.00  0.00    +0.190 A 
ATOM     31  N   UNL     1      50.281  82.196  42.640  0.00  0.00    -0.179 NA
ATOM     32  C   UNL     1      51.525  82.615  42.843  0.00  0.00    +0.340 A 
ATOM     33  O   UNL     1      52.520  81.835  42.680  0.00  0.00    -0.260 OA
ATOM     34  C   UNL     1      51.681  83.926  43.235  0.00  0.00    +0.353 A 
ATOM     35  O   UNL     1      52.858  84.325  43.427  0.00  0.00    -0.258 OA
ATOM     36  N   UNL     1      50.624  84.736  43.400  0.00  0.00    -0.121 NA
ENDBRANCH  27  30
ENDBRANCH  26  27
ENDBRANCH   1  26
TORSDOF 8
