REMARK  Name = Ceftazidime
REMARK  9 active torsions:
REMARK  status: ('A' for Active; 'I' for Inactive)
REMARK    1  A    between atoms: C_2  and  C_4
REMARK    2  A    between atoms: C_2  and  O_7
REMARK    3  A    between atoms: O_7  and  N_8
REMARK    4  A    between atoms: C_9  and  C_10
REMARK    5  A    between atoms: C_9  and  C_16
REMARK    6  A    between atoms: N_18  and  CA_19
REMARK    7  A    between atoms: CA_24  and  C_35
REMARK    8  A    between atoms: C_25  and  C_28
REMARK    9  A    between atoms: C_28  and  N_29
REMARK                            x       y       z     vdW  Elec       q    Type
REMARK                         _______ _______ _______ _____ _____    ______ ____
ROOT
ATOM      1  CA  UNL     1      45.947  78.971  38.756  0.00  0.00    +0.201 C 
ATOM      2  C   UNL     1      46.439  79.296  40.113  0.00  0.00    +0.157 C 
ATOM      3  N   UNL     1      46.467  80.657  39.650  0.00  0.00    -0.242 N 
ATOM      4  C   UNL     1      45.287  80.326  38.985  0.00  0.00    +0.253 C 
ATOM      5  O   UNL     1      44.186  80.851  38.690  0.00  0.00    -0.273 OA
ATOM      6  CA  UNL     1      47.472  81.646  39.945  0.00  0.00    +0.130 C 
ATOM      7  C   UNL     1      48.358  81.432  40.869  0.00  0.00    +0.009 C 
ATOM      8  C   UNL     1      48.460  80.195  41.720  0.00  0.00    +0.084 C 
ATOM      9  S   UNL     1      48.115  78.785  40.577  0.00  0.00    -0.114 S 
ENDROOT
BRANCH   1  12
ATOM     10  C   UNL     1      43.668  78.102  39.157  0.00  0.00    +0.288 C 
ATOM     11  O   UNL     1      43.457  79.384  39.412  0.00  0.00    -0.267 OA
ATOM     12  N   UNL     1      44.970  77.891  38.678  0.00  0.00    -0.190 NA
BRANCH  10  14
ATOM     13  N   UNL     1      42.608  76.623  40.588  0.00  0.00    -0.076 NA
ATOM     14  C   UNL     1      42.591  77.228  39.404  0.00  0.00    +0.192 C 
BRANCH  14  15
ATOM     15  C   UNL     1      41.452  76.903  38.517  0.00  0.00    +0.115 A 
ATOM     16  C   UNL     1      41.041  77.615  37.439  0.00  0.00    +0.059 A 
ATOM     17  S   UNL     1      39.681  76.672  36.888  0.00  0.00    -0.048 S 
ATOM     18  C   UNL     1      39.736  75.451  38.060  0.00  0.00    +0.201 A 
ATOM     19  N   UNL     1      40.751  75.808  38.789  0.00  0.00    -0.220 NA
ATOM     20  N   UNL     1      38.886  74.295  38.233  0.00  0.00    -0.100 NA
ENDBRANCH  14  15
BRANCH  13  21
ATOM     21  O   UNL     1      43.620  75.778  40.904  0.00  0.00    -0.374 OA
BRANCH  21  23
ATOM     22  C   UNL     1      45.391  75.070  42.324  0.00  0.00    +0.058 C 
ATOM     23  C   UNL     1      43.936  75.476  42.264  0.00  0.00    +0.253 C 
ATOM     24  C   UNL     1      43.634  76.639  43.168  0.00  0.00    +0.058 C 
BRANCH  23  25
ATOM     25  C   UNL     1      43.117  74.326  42.727  0.00  0.00    +0.403 C 
ATOM     26  O   UNL     1      43.380  73.775  43.824  0.00  0.00    -0.242 OA
ATOM     27  O   UNL     1      42.078  73.879  41.946  0.00  0.00    -0.242 OA
ENDBRANCH  23  25
ENDBRANCH  21  23
ENDBRANCH  13  21
ENDBRANCH  10  14
ENDBRANCH   1  12
BRANCH   6  28
ATOM     28  C   UNL     1      47.420  82.890  39.165  0.00  0.00    +0.401 C 
ATOM     29  O   UNL     1      46.297  83.501  39.058  0.00  0.00    -0.239 OA
ATOM     30  OXT UNL     1      48.474  83.449  38.544  0.00  0.00    -0.239 OA
ENDBRANCH   6  28
BRANCH   7  31
ATOM     31  C   UNL     1      49.415  82.403  41.186  0.00  0.00    +0.131 C 
BRANCH  31  32
ATOM     32  N   UNL     1      48.890  83.365  42.134  0.00  0.00    -0.321 N 
ATOM     33  C   UNL     1      47.566  83.396  42.351  0.00  0.00    +0.076 A 
ATOM     34  C   UNL     1      46.998  84.325  43.233  0.00  0.00    +0.019 A 
ATOM     35  C   UNL     1      47.840  85.196  43.865  0.00  0.00    +0.003 A 
ATOM     36  C   UNL     1      49.186  85.157  43.638  0.00  0.00    +0.019 A 
ATOM     37  C   UNL     1      49.716  84.213  42.747  0.00  0.00    +0.076 A 
ENDBRANCH  31  32
ENDBRANCH   7  31
TORSDOF 9
