REMARK  Name = Cefuroxime
REMARK  8 active torsions:
REMARK  status: ('A' for Active; 'I' for Inactive)
REMARK    1  A    between atoms: O_2  and  N_3
REMARK    2  A    between atoms: C_4  and  C_5
REMARK    3  A    between atoms: C_4  and  C_10
REMARK    4  A    between atoms: N_12  and  CA_13
REMARK    5  A    between atoms: CA_18  and  C_27
REMARK    6  A    between atoms: C_19  and  C_22
REMARK    7  A    between atoms: C_22  and  O_23
REMARK    8  A    between atoms: O_23  and  C_24
REMARK                            x       y       z     vdW  Elec       q    Type
REMARK                         _______ _______ _______ _____ _____    ______ ____
ROOT
ATOM      1  CA  UNL     1      45.761  80.451  38.825  0.00  0.00    +0.201 C 
ATOM      2  C   UNL     1      46.114  80.344  40.291  0.00  0.00    +0.157 C 
ATOM      3  N   UNL     1      46.438  81.762  40.165  0.00  0.00    -0.242 N 
ATOM      4  C   UNL     1      45.372  81.845  39.239  0.00  0.00    +0.253 C 
ATOM      5  O   UNL     1      44.520  82.686  38.927  0.00  0.00    -0.273 OA
ATOM      6  CA  UNL     1      47.514  82.371  40.898  0.00  0.00    +0.131 C 
ATOM      7  C   UNL     1      48.687  81.800  40.912  0.00  0.00    +0.030 C 
ATOM      8  C   UNL     1      48.970  80.471  40.189  0.00  0.00    +0.086 C 
ATOM      9  S   UNL     1      47.605  79.372  40.535  0.00  0.00    -0.114 S 
ENDROOT
BRANCH   1  12
ATOM     10  C   UNL     1      44.410  78.410  38.895  0.00  0.00    +0.289 C 
ATOM     11  O   UNL     1      45.296  77.549  38.660  0.00  0.00    -0.266 OA
ATOM     12  N   UNL     1      44.595  79.735  38.416  0.00  0.00    -0.190 NA
BRANCH  10  14
ATOM     13  N   UNL     1      43.371  77.757  40.892  0.00  0.00    -0.075 NA
ATOM     14  C   UNL     1      43.231  78.011  39.648  0.00  0.00    +0.208 C 
BRANCH  14  15
ATOM     15  C   UNL     1      41.939  77.909  38.995  0.00  0.00    +0.171 A 
ATOM     16  C   UNL     1      41.655  78.326  37.705  0.00  0.00    +0.043 A 
ATOM     17  C   UNL     1      40.327  78.049  37.483  0.00  0.00    +0.044 A 
ATOM     18  C   UNL     1      39.851  77.476  38.640  0.00  0.00    +0.180 A 
ATOM     19  O   UNL     1      40.831  77.407  39.517  0.00  0.00    -0.449 OA
ENDBRANCH  14  15
BRANCH  13  21
ATOM     20  C   UNL     1      43.291  76.336  42.839  0.00  0.00    +0.288 C 
ATOM     21  O   UNL     1      42.760  76.762  41.579  0.00  0.00    -0.373 OA
ENDBRANCH  13  21
ENDBRANCH  10  14
ENDBRANCH   1  12
BRANCH   6  22
ATOM     22  C   UNL     1      47.115  83.472  41.751  0.00  0.00    +0.401 C 
ATOM     23  O   UNL     1      46.274  83.253  42.688  0.00  0.00    -0.239 OA
ATOM     24  OXT UNL     1      47.547  84.772  41.698  0.00  0.00    -0.239 OA
ENDBRANCH   6  22
BRANCH   7  25
ATOM     25  C   UNL     1      49.895  82.440  41.360  0.00  0.00    +0.235 C 
BRANCH  25  26
ATOM     26  O   UNL     1      50.628  82.055  42.449  0.00  0.00    -0.428 OA
BRANCH  26  27
ATOM     27  C   UNL     1      51.809  82.788  42.762  0.00  0.00    +0.441 C 
ATOM     28  O   UNL     1      51.626  83.968  43.141  0.00  0.00    -0.223 OA
ATOM     29  N   UNL     1      53.086  82.215  42.651  0.00  0.00    -0.048 NA
ENDBRANCH  26  27
ENDBRANCH  25  26
ENDBRANCH   7  25
TORSDOF 8
