REMARK  Name = Celiprolol_hcl
REMARK  10 active torsions:
REMARK  status: ('A' for Active; 'I' for Inactive)
REMARK    1  A    between atoms: C_2  and  N_3
REMARK    2  A    between atoms: N_3  and  C_4
REMARK    3  A    between atoms: N_8  and  C_9
REMARK    4  A    between atoms: C_11  and  C_25
REMARK    5  A    between atoms: C_12  and  O_15
REMARK    6  A    between atoms: O_15  and  C_16
REMARK    7  A    between atoms: C_16  and  C_17
REMARK    8  A    between atoms: C_17  and  C_18
REMARK    9  A    between atoms: C_18  and  N_19
REMARK   10  A    between atoms: N_19  and  C_20
REMARK                            x       y       z     vdW  Elec       q    Type
REMARK                         _______ _______ _______ _____ _____    ______ ____
ROOT
ATOM      1  C   UNL     1      43.800  79.219  40.001  0.00  0.00    +0.075 A 
ATOM      2  C   UNL     1      44.192  80.179  39.118  0.00  0.00    +0.023 A 
ATOM      3  C   UNL     1      45.493  80.675  39.072  0.00  0.00    +0.070 A 
ATOM      4  C   UNL     1      46.440  80.189  39.946  0.00  0.00    +0.141 A 
ATOM      5  C   UNL     1      46.069  79.224  40.840  0.00  0.00    +0.038 A 
ATOM      6  C   UNL     1      44.766  78.747  40.866  0.00  0.00    +0.020 A 
ENDROOT
BRANCH   1  10
ATOM      7  N   UNL     1      40.897  76.940  39.402  0.00  0.00    -0.263 N 
ATOM      8  C   UNL     1      42.180  77.527  39.334  0.00  0.00    +0.327 C 
ATOM      9  O   UNL     1      43.087  77.041  38.576  0.00  0.00    -0.250 OA
ATOM     10  N   UNL     1      42.497  78.669  40.102  0.00  0.00    -0.162 NA
BRANCH   7  12
ATOM     11  C   UNL     1      39.034  78.525  39.554  0.00  0.00    +0.023 C 
ATOM     12  C   UNL     1      39.873  77.480  40.256  0.00  0.00    +0.095 C 
ENDBRANCH   7  12
BRANCH   7  13
ATOM     13  C   UNL     1      40.592  75.766  38.596  0.00  0.00    +0.095 C 
ATOM     14  C   UNL     1      40.898  74.483  39.303  0.00  0.00    +0.023 C 
ENDBRANCH   7  13
ENDBRANCH   1  10
BRANCH   3  15
ATOM     15  C   UNL     1      45.834  81.694  38.113  0.00  0.00    +0.176 C 
ATOM     16  O   UNL     1      44.944  82.121  37.324  0.00  0.00    -0.291 OA
ATOM     17  C   UNL     1      47.185  82.253  38.025  0.00  0.00    +0.077 C 
ENDBRANCH   3  15
BRANCH   4  18
ATOM     18  O   UNL     1      47.689  80.686  39.874  0.00  0.00    -0.473 OA
BRANCH  18  19
ATOM     19  C   UNL     1      48.860  80.505  40.535  0.00  0.00    +0.240 C 
BRANCH  19  20
ATOM     20  C   UNL     1      48.771  80.937  41.992  0.00  0.00    +0.213 C 
ATOM     21  O   UNL     1      50.032  80.676  42.524  0.00  0.00    -0.218 OA
BRANCH  20  22
ATOM     22  C   UNL     1      48.425  82.415  41.958  0.00  0.00    +0.125 C 
BRANCH  22  23
ATOM     23  N   UNL     1      48.338  83.125  43.126  0.00  0.00    -0.218 NA
BRANCH  23  24
ATOM     24  C   UNL     1      49.296  83.487  44.026  0.00  0.00    +0.060 C 
ATOM     25  C   UNL     1      49.830  82.347  44.860  0.00  0.00    +0.017 C 
ATOM     26  C   UNL     1      50.481  84.269  43.529  0.00  0.00    +0.017 C 
ATOM     27  C   UNL     1      48.624  84.455  45.033  0.00  0.00    +0.017 C 
ENDBRANCH  23  24
ENDBRANCH  22  23
ENDBRANCH  20  22
ENDBRANCH  19  20
ENDBRANCH  18  19
ENDBRANCH   4  18
TORSDOF 10
REMARK  Name = Celiprolol_hcl
REMARK  10 active torsions:
REMARK  status: ('A' for Active; 'I' for Inactive)
REMARK    1  A    between atoms: C_2  and  N_3
REMARK    2  A    between atoms: N_3  and  C_4
REMARK    3  A    between atoms: N_8  and  C_9
REMARK    4  A    between atoms: C_11  and  C_25
REMARK    5  A    between atoms: C_12  and  O_15
REMARK    6  A    between atoms: O_15  and  C_16
REMARK    7  A    between atoms: C_16  and  C_17
REMARK    8  A    between atoms: C_17  and  C_18
REMARK    9  A    between atoms: C_18  and  N_19
REMARK   10  A    between atoms: N_19  and  C_20
REMARK                            x       y       z     vdW  Elec       q    Type
REMARK                         _______ _______ _______ _____ _____    ______ ____
ROOT
ATOM      1 CL   UNL     1      45.114  79.898  40.680  0.00  0.00    +0.000 Cl
ENDROOT
TORSDOF 0
