REMARK  Name = Cenobamate
REMARK  5 active torsions:
REMARK  status: ('A' for Active; 'I' for Inactive)
REMARK    1  A    between atoms: C_5  and  C_7
REMARK    2  A    between atoms: C_7  and  C_8
REMARK    3  A    between atoms: C_7  and  O_14
REMARK    4  A    between atoms: C_8  and  N_9
REMARK    5  A    between atoms: O_14  and  C_15
REMARK                            x       y       z     vdW  Elec       q    Type
REMARK                         _______ _______ _______ _____ _____    ______ ____
ROOT
ATOM      1  C   UNL     1      47.450  81.531  41.504  0.00  0.00    +0.220 C 
ENDROOT
BRANCH   1   6
ATOM      2  C   UNL     1      50.916  82.695  42.329  0.00  0.00    -0.000 A 
ATOM      3  C   UNL     1      50.662  83.808  43.077  0.00  0.00    +0.001 A 
ATOM      4  C   UNL     1      49.353  84.196  43.323  0.00  0.00    +0.011 A 
ATOM      5  C   UNL     1      48.283  83.448  42.806  0.00  0.00    +0.057 A 
ATOM      6  C   UNL     1      48.544  82.333  42.057  0.00  0.00    +0.030 A 
ATOM      7  C   UNL     1      49.843  81.976  41.831  0.00  0.00    +0.000 A 
ATOM      8 CL   UNL     1      46.671  84.010  43.167  0.00  0.00    -0.082 Cl
ENDBRANCH   1   6
BRANCH   1   9
ATOM      9  C   UNL     1      47.459  80.106  41.981  0.00  0.00    +0.199 C 
BRANCH   9  10
ATOM     10  N   UNL     1      46.368  79.341  41.408  0.00  0.00    -0.147 N 
ATOM     11  N   UNL     1      45.238  78.985  42.008  0.00  0.00    -0.126 NA
ATOM     12  C   UNL     1      44.468  78.287  41.170  0.00  0.00    +0.245 A 
ATOM     13  N   UNL     1      45.137  78.205  40.014  0.00  0.00    -0.104 NA
ATOM     14  N   UNL     1      46.287  78.851  40.177  0.00  0.00    -0.045 NA
ENDBRANCH   9  10
ENDBRANCH   1   9
BRANCH   1  15
ATOM     15  O   UNL     1      47.466  81.668  40.116  0.00  0.00    -0.429 OA
BRANCH  15  16
ATOM     16  C   UNL     1      46.553  82.361  39.372  0.00  0.00    +0.441 C 
ATOM     17  O   UNL     1      45.342  82.211  39.673  0.00  0.00    -0.223 OA
ATOM     18  N   UNL     1      46.987  83.192  38.326  0.00  0.00    -0.048 NA
ENDBRANCH  15  16
ENDBRANCH   1  15
TORSDOF 5
