REMARK  Name = Cephaloglycin
REMARK  7 active torsions:
REMARK  status: ('A' for Active; 'I' for Inactive)
REMARK    1  A    between atoms: C_2  and  O_4
REMARK    2  A    between atoms: O_4  and  C_5
REMARK    3  A    between atoms: C_5  and  C_6
REMARK    4  A    between atoms: CA_7  and  C_26
REMARK    5  A    between atoms: CA_10  and  N_13
REMARK    6  A    between atoms: C_14  and  CA_16
REMARK    7  A    between atoms: CA_16  and  C_17
REMARK                            x       y       z     vdW  Elec       q    Type
REMARK                         _______ _______ _______ _____ _____    ______ ____
ROOT
ATOM      1  C   UNL     1      47.233  81.682  41.183  0.00  0.00    +0.030 C 
ATOM      2  CA  UNL     1      46.815  81.533  39.943  0.00  0.00    +0.131 C 
ATOM      3  N   UNL     1      46.102  80.311  39.589  0.00  0.00    -0.242 N 
ATOM      4  C   UNL     1      46.649  78.998  39.916  0.00  0.00    +0.157 C 
ATOM      5  CA  UNL     1      45.254  78.471  39.633  0.00  0.00    +0.200 C 
ATOM      6  C   UNL     1      44.944  79.764  38.974  0.00  0.00    +0.253 C 
ATOM      7  O   UNL     1      44.034  80.157  38.206  0.00  0.00    -0.273 OA
ATOM      8  S   UNL     1      47.138  78.985  41.632  0.00  0.00    -0.114 S 
ATOM      9  C   UNL     1      46.974  80.652  42.259  0.00  0.00    +0.086 C 
ENDROOT
BRANCH   5  10
ATOM     10  N   UNL     1      44.559  78.216  40.865  0.00  0.00    -0.194 NA
ATOM     11  C   UNL     1      43.474  77.267  40.953  0.00  0.00    +0.264 C 
ATOM     12  O   UNL     1      42.895  77.222  42.066  0.00  0.00    -0.271 OA
BRANCH  11  13
ATOM     13  CA  UNL     1      43.064  76.417  39.847  0.00  0.00    +0.191 C 
ATOM     14  N   UNL     1      43.008  75.010  40.172  0.00  0.00    -0.118 NA
BRANCH  13  15
ATOM     15  C   UNL     1      41.815  76.808  39.163  0.00  0.00    +0.004 A 
ATOM     16  C   UNL     1      40.628  76.290  39.634  0.00  0.00    -0.002 A 
ATOM     17  C   UNL     1      39.408  76.608  39.052  0.00  0.00    -0.000 A 
ATOM     18  C   UNL     1      39.374  77.458  37.980  0.00  0.00    -0.000 A 
ATOM     19  C   UNL     1      40.542  77.992  37.485  0.00  0.00    -0.000 A 
ATOM     20  C   UNL     1      41.755  77.658  38.088  0.00  0.00    -0.002 A 
ENDBRANCH  13  15
ENDBRANCH  11  13
ENDBRANCH   5  10
BRANCH   2  21
ATOM     21  C   UNL     1      46.974  82.497  38.873  0.00  0.00    +0.401 C 
ATOM     22  O   UNL     1      46.004  82.952  38.257  0.00  0.00    -0.239 OA
ATOM     23  OXT UNL     1      48.212  82.969  38.469  0.00  0.00    -0.239 OA
ENDBRANCH   2  21
BRANCH   1  24
ATOM     24  C   UNL     1      47.956  82.859  41.638  0.00  0.00    +0.233 C 
BRANCH  24  25
ATOM     25  O   UNL     1      49.236  82.424  42.112  0.00  0.00    -0.444 OA
BRANCH  25  27
ATOM     26  C   UNL     1      50.120  84.531  43.094  0.00  0.00    +0.121 C 
ATOM     27  C   UNL     1      50.266  83.311  42.224  0.00  0.00    +0.318 C 
ATOM     28  O   UNL     1      51.334  83.102  41.598  0.00  0.00    -0.250 OA
ENDBRANCH  25  27
ENDBRANCH  24  25
ENDBRANCH   1  24
TORSDOF 7
