REMARK  Name = Cephalexin
REMARK  4 active torsions:
REMARK  status: ('A' for Active; 'I' for Inactive)
REMARK    1  A    between atoms: CA_3  and  C_22
REMARK    2  A    between atoms: CA_6  and  N_9
REMARK    3  A    between atoms: C_10  and  CA_12
REMARK    4  A    between atoms: CA_12  and  C_13
REMARK                            x       y       z     vdW  Elec       q    Type
REMARK                         _______ _______ _______ _____ _____    ______ ____
ROOT
ATOM      1  C   UNL     1      51.298  84.568  43.877  0.00  0.00    +0.029 C 
ATOM      2  C   UNL     1      50.146  84.041  43.116  0.00  0.00    -0.013 C 
ATOM      3  CA  UNL     1      50.284  82.867  42.472  0.00  0.00    +0.128 C 
ATOM      4  N   UNL     1      49.193  82.341  41.739  0.00  0.00    -0.242 N 
ATOM      5  C   UNL     1      47.830  82.258  42.251  0.00  0.00    +0.157 C 
ATOM      6  CA  UNL     1      47.328  82.258  40.823  0.00  0.00    +0.200 C 
ATOM      7  C   UNL     1      48.695  81.755  40.550  0.00  0.00    +0.253 C 
ATOM      8  O   UNL     1      49.247  81.077  39.645  0.00  0.00    -0.273 OA
ATOM      9  S   UNL     1      47.421  83.787  43.113  0.00  0.00    -0.114 S 
ATOM     10  C   UNL     1      48.879  84.824  43.067  0.00  0.00    +0.083 C 
ENDROOT
BRANCH   6  11
ATOM     11  N   UNL     1      46.260  81.287  40.674  0.00  0.00    -0.194 NA
ATOM     12  C   UNL     1      45.578  81.140  39.424  0.00  0.00    +0.264 C 
ATOM     13  O   UNL     1      45.955  81.909  38.506  0.00  0.00    -0.271 OA
BRANCH  12  14
ATOM     14  CA  UNL     1      44.512  80.188  39.161  0.00  0.00    +0.191 C 
ATOM     15  N   UNL     1      44.521  79.872  37.721  0.00  0.00    -0.118 NA
BRANCH  14  16
ATOM     16  C   UNL     1      44.520  78.949  39.927  0.00  0.00    +0.004 A 
ATOM     17  C   UNL     1      43.584  78.698  40.889  0.00  0.00    -0.002 A 
ATOM     18  C   UNL     1      43.622  77.505  41.589  0.00  0.00    -0.000 A 
ATOM     19  C   UNL     1      44.586  76.559  41.339  0.00  0.00    -0.000 A 
ATOM     20  C   UNL     1      45.538  76.800  40.369  0.00  0.00    -0.000 A 
ATOM     21  C   UNL     1      45.486  78.010  39.671  0.00  0.00    -0.002 A 
ENDBRANCH  14  16
ENDBRANCH  12  14
ENDBRANCH   6  11
BRANCH   3  22
ATOM     22  C   UNL     1      51.573  82.171  42.540  0.00  0.00    +0.401 C 
ATOM     23  O   UNL     1      52.592  82.532  41.928  0.00  0.00    -0.239 OA
ATOM     24  OXT UNL     1      51.706  81.028  43.328  0.00  0.00    -0.239 OA
ENDBRANCH   3  22
TORSDOF 4
