REMARK  Name = Cephalosporin
REMARK  10 active torsions:
REMARK  status: ('A' for Active; 'I' for Inactive)
REMARK    1  A    between atoms: C_5  and  CA_11
REMARK    2  A    between atoms: CA_7  and  C_8
REMARK    3  A    between atoms: CA_11  and  C_12
REMARK    4  A    between atoms: CA_11  and  N_15
REMARK    5  A    between atoms: C_16  and  C_18
REMARK    6  A    between atoms: C_18  and  C_19
REMARK    7  A    between atoms: C_19  and  C_20
REMARK    8  A    between atoms: C_20  and  C_21
REMARK    9  A    between atoms: C_21  and  CA_22
REMARK   10  A    between atoms: CA_22  and  C_23
REMARK                            x       y       z     vdW  Elec       q    Type
REMARK                         _______ _______ _______ _____ _____    ______ ____
ROOT
ATOM      1  CA  UNL     1      45.489  80.006  39.091  0.00  0.00    +0.230 C 
ENDROOT
BRANCH   1   6
ATOM      2  C   UNL     1      42.136  75.945  40.245  0.00  0.00    -0.002 C 
ATOM      3  C   UNL     1      42.800  77.049  40.103  0.00  0.00    +0.013 C 
ATOM      4  C   UNL     1      43.733  77.466  41.181  0.00  0.00    +0.087 C 
ATOM      5  S   UNL     1      45.332  77.672  40.350  0.00  0.00    -0.110 S 
ATOM      6  C   UNL     1      45.030  78.574  38.820  0.00  0.00    +0.182 C 
ATOM      7  N   UNL     1      43.677  78.505  38.420  0.00  0.00    -0.253 NA
ATOM      8  CA  UNL     1      42.670  77.871  38.925  0.00  0.00    +0.153 C 
BRANCH   8   9
ATOM      9  C   UNL     1      41.347  77.993  38.273  0.00  0.00    +0.404 C 
ATOM     10  O   UNL     1      40.457  77.124  38.439  0.00  0.00    -0.239 OA
ATOM     11  OXT UNL     1      41.074  79.063  37.472  0.00  0.00    -0.239 OA
ENDBRANCH   8   9
ENDBRANCH   1   6
BRANCH   1  12
ATOM     12  C   UNL     1      44.337  80.893  38.918  0.00  0.00    +0.387 C 
ATOM     13  O   UNL     1      44.170  81.598  37.891  0.00  0.00    -0.244 OA
ATOM     14  OXT UNL     1      43.380  80.975  39.914  0.00  0.00    -0.244 OA
ENDBRANCH   1  12
BRANCH   1  15
ATOM     15  N   UNL     1      46.050  80.164  40.396  0.00  0.00    -0.193 NA
ATOM     16  C   UNL     1      47.180  80.968  40.683  0.00  0.00    +0.242 C 
ATOM     17  O   UNL     1      47.924  81.337  39.741  0.00  0.00    -0.273 OA
BRANCH  16  18
ATOM     18  C   UNL     1      47.521  81.395  42.078  0.00  0.00    +0.087 C 
BRANCH  18  19
ATOM     19  C   UNL     1      49.009  81.722  42.175  0.00  0.00    +0.010 C 
BRANCH  19  20
ATOM     20  C   UNL     1      49.243  82.220  43.565  0.00  0.00    +0.003 C 
BRANCH  20  21
ATOM     21  C   UNL     1      50.640  82.602  43.817  0.00  0.00    +0.031 C 
BRANCH  21  22
ATOM     22  CA  UNL     1      51.081  83.978  43.530  0.00  0.00    +0.194 C 
ATOM     23  N   UNL     1      52.266  84.180  42.804  0.00  0.00    -0.121 NA
BRANCH  22  24
ATOM     24  C   UNL     1      51.202  84.752  44.818  0.00  0.00    +0.382 C 
ATOM     25  O   UNL     1      52.328  85.040  45.271  0.00  0.00    -0.244 OA
ATOM     26  OXT UNL     1      50.016  85.125  45.470  0.00  0.00    -0.244 OA
ENDBRANCH  22  24
ENDBRANCH  21  22
ENDBRANCH  20  21
ENDBRANCH  19  20
ENDBRANCH  18  19
ENDBRANCH  16  18
ENDBRANCH   1  15
TORSDOF 10
