REMARK  Name = Ceritinib
REMARK  7 active torsions:
REMARK  status: ('A' for Active; 'I' for Inactive)
REMARK    1  A    between atoms: C_4  and  N_18
REMARK    2  A    between atoms: C_5  and  O_14
REMARK    3  A    between atoms: C_7  and  C_8
REMARK    4  A    between atoms: O_14  and  C_15
REMARK    5  A    between atoms: N_25  and  C_26
REMARK    6  A    between atoms: C_31  and  S_32
REMARK    7  A    between atoms: S_32  and  C_35
REMARK                            x       y       z     vdW  Elec       q    Type
REMARK                         _______ _______ _______ _____ _____    ______ ____
ROOT
ATOM      1  N   UNL     1      44.291  79.551  38.502  0.00  0.00    -0.175 NA
ATOM      2  C   UNL     1      45.211  80.544  38.965  0.00  0.00    +0.242 A 
ATOM      3  N   UNL     1      45.211  81.740  38.311  0.00  0.00    -0.210 NA
ATOM      4  C   UNL     1      46.037  82.714  38.703  0.00  0.00    +0.116 A 
ATOM      5  C   UNL     1      46.886  82.515  39.761  0.00  0.00    +0.110 A 
ATOM      6  C   UNL     1      46.912  81.293  40.458  0.00  0.00    +0.167 A 
ATOM      7  N   UNL     1      46.042  80.392  39.978  0.00  0.00    -0.194 NA
ATOM      8  N   UNL     1      47.789  81.100  41.552  0.00  0.00    -0.192 NA
ATOM      9 CL   UNL     1      47.981  83.789  40.291  0.00  0.00    -0.078 Cl
ENDROOT
BRANCH   1  13
ATOM     10  C   UNL     1      46.092  76.025  41.372  0.00  0.00    +0.031 C 
ATOM     11  C   UNL     1      44.975  76.695  40.669  0.00  0.00    -0.024 A 
ATOM     12  C   UNL     1      45.150  77.808  39.944  0.00  0.00    +0.015 A 
ATOM     13  C   UNL     1      44.068  78.412  39.297  0.00  0.00    +0.107 A 
ATOM     14  C   UNL     1      42.781  77.887  39.380  0.00  0.00    +0.153 A 
ATOM     15  C   UNL     1      42.660  76.712  40.157  0.00  0.00    +0.034 A 
ATOM     16  C   UNL     1      43.705  76.122  40.785  0.00  0.00    -0.023 A 
BRANCH  16  17
ATOM     17  C   UNL     1      43.529  74.875  41.593  0.00  0.00    +0.025 C 
ATOM     18  C   UNL     1      42.549  75.022  42.706  0.00  0.00    +0.023 C 
ATOM     19  C   UNL     1      41.200  74.411  42.455  0.00  0.00    +0.089 C 
ATOM     20  N   UNL     1      41.218  73.183  41.715  0.00  0.00    -0.218 NA
ATOM     21  C   UNL     1      42.568  72.655  41.575  0.00  0.00    +0.089 C 
ATOM     22  C   UNL     1      43.312  73.663  40.721  0.00  0.00    +0.023 C 
ENDBRANCH  16  17
BRANCH  14  23
ATOM     23  O   UNL     1      41.713  78.404  38.797  0.00  0.00    -0.478 OA
BRANCH  23  24
ATOM     24  C   UNL     1      40.496  78.483  38.335  0.00  0.00    +0.166 C 
ATOM     25  C   UNL     1      40.130  77.143  37.635  0.00  0.00    +0.047 C 
ATOM     26  C   UNL     1      40.332  79.542  37.212  0.00  0.00    +0.047 C 
ENDBRANCH  23  24
ENDBRANCH  14  23
ENDBRANCH   1  13
BRANCH   8  27
ATOM     27  C   UNL     1      48.941  80.307  41.617  0.00  0.00    +0.089 A 
ATOM     28  C   UNL     1      49.032  79.073  41.018  0.00  0.00    +0.018 A 
ATOM     29  C   UNL     1      50.147  78.243  41.117  0.00  0.00    +0.001 A 
ATOM     30  C   UNL     1      51.203  78.714  41.867  0.00  0.00    +0.001 A 
ATOM     31  C   UNL     1      51.127  79.941  42.467  0.00  0.00    +0.020 A 
ATOM     32  C   UNL     1      50.026  80.781  42.377  0.00  0.00    +0.121 A 
BRANCH  32  33
ATOM     33  S   UNL     1      50.042  82.366  43.084  0.00  0.00    +0.008 S 
ATOM     34  O   UNL     1      48.658  82.842  43.467  0.00  0.00    -0.169 OA
ATOM     35  O   UNL     1      50.740  82.220  44.442  0.00  0.00    -0.169 OA
BRANCH  33  36
ATOM     36  C   UNL     1      50.957  83.572  42.222  0.00  0.00    +0.134 C 
ATOM     37  C   UNL     1      52.453  83.143  42.295  0.00  0.00    +0.026 C 
ATOM     38  C   UNL     1      50.677  83.796  40.796  0.00  0.00    +0.026 C 
ENDBRANCH  33  36
ENDBRANCH  32  33
ENDBRANCH   8  27
TORSDOF 7
