REMARK  Name = Ceruletide
REMARK  38 active torsions:
REMARK  status: ('A' for Active; 'I' for Inactive)
REMARK    1  A    between atoms: C_2  and  C_3
REMARK    2  A    between atoms: C_3  and  C_4
REMARK    3  A    between atoms: C_3  and  N_52
REMARK    4  A    between atoms: N_6  and  C_7
REMARK    5  A    between atoms: C_7  and  C_8
REMARK    6  A    between atoms: N_10  and  C_11
REMARK    7  A    between atoms: C_11  and  C_12
REMARK    8  A    between atoms: C_11  and  C_22
REMARK    9  A    between atoms: C_12  and  C_13
REMARK   10  A    between atoms: N_24  and  C_25
REMARK   11  A    between atoms: C_25  and  C_26
REMARK   12  A    between atoms: C_25  and  C_30
REMARK   13  A    between atoms: C_26  and  C_27
REMARK   14  A    between atoms: C_27  and  S_28
REMARK   15  A    between atoms: N_32  and  C_33
REMARK   16  A    between atoms: C_33  and  C_34
REMARK   17  A    between atoms: C_33  and  C_38
REMARK   18  A    between atoms: C_34  and  C_35
REMARK   19  A    between atoms: N_40  and  C_41
REMARK   20  A    between atoms: C_41  and  C_42
REMARK   21  A    between atoms: C_41  and  C_49
REMARK   22  A    between atoms: C_42  and  C_43
REMARK   23  A    between atoms: C_53  and  C_55
REMARK   24  A    between atoms: C_55  and  C_56
REMARK   25  A    between atoms: C_55  and  N_68
REMARK   26  A    between atoms: C_56  and  C_57
REMARK   27  A    between atoms: C_60  and  O_63
REMARK   28  A    between atoms: O_63  and  S_64
REMARK   29  A    between atoms: C_69  and  C_71
REMARK   30  A    between atoms: C_71  and  C_72
REMARK   31  A    between atoms: C_71  and  N_76
REMARK   32  A    between atoms: C_72  and  C_73
REMARK   33  A    between atoms: C_77  and  C_79
REMARK   34  A    between atoms: C_79  and  C_80
REMARK   35  A    between atoms: C_79  and  N_85
REMARK   36  A    between atoms: C_80  and  C_81
REMARK   37  A    between atoms: C_81  and  C_82
REMARK   38  A    between atoms: C_86  and  C_88
REMARK                            x       y       z     vdW  Elec       q    Type
REMARK                         _______ _______ _______ _____ _____    ______ ____
ROOT
ATOM      1  C   UNL     1      41.512  76.957  37.890  0.00  0.00    +0.264 C 
ATOM      2  O   UNL     1      42.227  76.374  37.059  0.00  0.00    -0.271 OA
ATOM      3  N   UNL     1      41.963  77.948  38.762  0.00  0.00    -0.194 NA
ENDROOT
BRANCH   3   4
ATOM      4  C   UNL     1      43.269  77.948  39.337  0.00  0.00    +0.201 C 
BRANCH   4   5
ATOM      5  C   UNL     1      43.598  79.104  40.219  0.00  0.00    +0.264 C 
ATOM      6  O   UNL     1      43.146  80.262  40.068  0.00  0.00    -0.271 OA
ATOM      7  N   UNL     1      44.488  78.789  41.272  0.00  0.00    -0.196 NA
BRANCH   7   8
ATOM      8  C   UNL     1      45.878  79.293  41.339  0.00  0.00    +0.177 C 
BRANCH   8   9
ATOM      9  C   UNL     1      46.646  78.448  42.269  0.00  0.00    +0.262 C 
ATOM     10  O   UNL     1      45.976  77.447  42.755  0.00  0.00    -0.271 OA
ATOM     11  N   UNL     1      47.950  78.547  42.703  0.00  0.00    -0.196 NA
BRANCH  11  12
ATOM     12  C   UNL     1      48.511  78.410  44.057  0.00  0.00    +0.174 C 
BRANCH  12  13
ATOM     13  C   UNL     1      49.236  79.602  44.456  0.00  0.00    +0.262 C 
ATOM     14  O   UNL     1      48.977  80.735  44.001  0.00  0.00    -0.271 OA
ATOM     15  N   UNL     1      50.316  79.550  45.428  0.00  0.00    -0.196 NA
BRANCH  15  16
ATOM     16  C   UNL     1      51.045  80.766  45.737  0.00  0.00    +0.184 C 
BRANCH  16  17
ATOM     17  C   UNL     1      52.027  80.541  46.823  0.00  0.00    +0.262 C 
ATOM     18  O   UNL     1      52.744  79.520  46.705  0.00  0.00    -0.271 OA
ATOM     19  N   UNL     1      52.155  81.407  47.934  0.00  0.00    -0.196 NA
BRANCH  19  20
ATOM     20  C   UNL     1      53.041  81.267  49.048  0.00  0.00    +0.179 C 
BRANCH  20  21
ATOM     21  C   UNL     1      52.957  82.271  50.106  0.00  0.00    +0.281 C 
ATOM     22  O   UNL     1      53.099  83.490  49.732  0.00  0.00    -0.270 OA
ATOM     23  N   UNL     1      52.745  82.097  51.486  0.00  0.00    -0.086 NA
ENDBRANCH  20  21
BRANCH  20  24
ATOM     24  C   UNL     1      54.401  81.001  48.492  0.00  0.00    +0.057 C 
BRANCH  24  25
ATOM     25  C   UNL     1      55.444  80.609  49.418  0.00  0.00    -0.020 A 
ATOM     26  C   UNL     1      55.273  80.545  50.782  0.00  0.00    -0.004 A 
ATOM     27  C   UNL     1      56.293  80.183  51.637  0.00  0.00    -0.000 A 
ATOM     28  C   UNL     1      57.547  79.866  51.150  0.00  0.00    -0.000 A 
ATOM     29  C   UNL     1      57.738  79.925  49.790  0.00  0.00    -0.000 A 
ATOM     30  C   UNL     1      56.717  80.286  48.930  0.00  0.00    -0.004 A 
ENDBRANCH  24  25
ENDBRANCH  20  24
ENDBRANCH  19  20
ENDBRANCH  16  17
BRANCH  16  31
ATOM     31  C   UNL     1      50.131  81.927  45.964  0.00  0.00    +0.145 C 
BRANCH  31  32
ATOM     32  C   UNL     1      50.885  83.146  46.279  0.00  0.00    +0.367 C 
ATOM     33  O   UNL     1      52.153  83.251  46.248  0.00  0.00    -0.246 OA
ATOM     34  O   UNL     1      50.192  84.290  46.642  0.00  0.00    -0.246 OA
ENDBRANCH  31  32
ENDBRANCH  16  31
ENDBRANCH  15  16
ENDBRANCH  12  13
BRANCH  12  35
ATOM     35  C   UNL     1      49.498  77.216  44.084  0.00  0.00    +0.043 C 
BRANCH  35  36
ATOM     36  C   UNL     1      48.814  75.987  44.615  0.00  0.00    +0.060 C 
BRANCH  36  37
ATOM     37  S   UNL     1      47.337  75.599  43.728  0.00  0.00    -0.139 S 
ATOM     38  C   UNL     1      46.330  74.249  44.209  0.00  0.00    +0.069 C 
ENDBRANCH  36  37
ENDBRANCH  35  36
ENDBRANCH  12  35
ENDBRANCH  11  12
ENDBRANCH   8   9
BRANCH   8  39
ATOM     39  C   UNL     1      46.398  79.450  39.970  0.00  0.00    +0.059 C 
BRANCH  39  40
ATOM     40  C   UNL     1      46.503  80.745  39.337  0.00  0.00    +0.001 A 
ATOM     41  C   UNL     1      45.934  81.163  38.162  0.00  0.00    +0.095 A 
ATOM     42  N   UNL     1      46.251  82.459  38.005  0.00  0.00    -0.244 NA
ATOM     43  C   UNL     1      47.004  82.894  39.038  0.00  0.00    +0.081 A 
ATOM     44  C   UNL     1      47.540  84.165  39.296  0.00  0.00    +0.019 A 
ATOM     45  C   UNL     1      48.265  84.334  40.451  0.00  0.00    +0.002 A 
ATOM     46  C   UNL     1      48.444  83.274  41.313  0.00  0.00    +0.000 A 
ATOM     47  C   UNL     1      47.909  82.035  41.043  0.00  0.00    +0.001 A 
ATOM     48  C   UNL     1      47.175  81.832  39.889  0.00  0.00    +0.015 A 
ENDBRANCH  39  40
ENDBRANCH   8  39
ENDBRANCH   7   8
ENDBRANCH   4   5
ENDBRANCH   3   4
BRANCH   1  49
ATOM     49  C   UNL     1      40.037  76.546  37.943  0.00  0.00    +0.203 C 
BRANCH  49  51
ATOM     50  C   UNL     1      41.179  74.415  38.309  0.00  0.00    +0.038 C 
ATOM     51  C   UNL     1      40.025  75.279  38.730  0.00  0.00    +0.181 C 
ATOM     52  O   UNL     1      40.151  75.646  40.087  0.00  0.00    -0.221 OA
ENDBRANCH  49  51
BRANCH  49  53
ATOM     53  N   UNL     1      39.705  76.215  36.546  0.00  0.00    -0.194 NA
ATOM     54  C   UNL     1      38.411  75.786  36.203  0.00  0.00    +0.262 C 
ATOM     55  O   UNL     1      37.506  75.633  37.060  0.00  0.00    -0.271 OA
BRANCH  54  56
ATOM     56  C   UNL     1      38.063  75.507  34.772  0.00  0.00    +0.177 C 
BRANCH  56  57
ATOM     57  N   UNL     1      37.455  74.215  34.684  0.00  0.00    -0.196 NA
ATOM     58  C   UNL     1      36.940  73.576  33.538  0.00  0.00    +0.262 C 
ATOM     59  O   UNL     1      37.173  74.053  32.415  0.00  0.00    -0.271 OA
BRANCH  58  60
ATOM     60  C   UNL     1      36.132  72.360  33.645  0.00  0.00    +0.184 C 
BRANCH  60  61
ATOM     61  N   UNL     1      35.717  71.886  32.321  0.00  0.00    -0.196 NA
ATOM     62  C   UNL     1      36.588  71.439  31.319  0.00  0.00    +0.262 C 
ATOM     63  O   UNL     1      37.690  70.916  31.636  0.00  0.00    -0.271 OA
BRANCH  62  64
ATOM     64  C   UNL     1      36.212  71.560  29.866  0.00  0.00    +0.173 C 
BRANCH  64  65
ATOM     65  N   UNL     1      34.901  70.897  29.710  0.00  0.00    -0.196 NA
ATOM     66  C   UNL     1      33.745  71.742  29.593  0.00  0.00    +0.262 C 
ATOM     67  O   UNL     1      33.912  72.972  29.600  0.00  0.00    -0.271 OA
BRANCH  66  68
ATOM     68  C   UNL     1      32.367  71.244  29.467  0.00  0.00    +0.173 C 
ATOM     69  C   UNL     1      31.470  71.686  30.581  0.00  0.00    +0.041 C 
ATOM     70  C   UNL     1      30.427  72.541  29.942  0.00  0.00    +0.089 C 
ATOM     71  C   UNL     1      30.913  72.730  28.537  0.00  0.00    +0.242 C 
ATOM     72  O   UNL     1      30.671  73.710  27.806  0.00  0.00    -0.273 OA
ATOM     73  N   UNL     1      31.695  71.542  28.253  0.00  0.00    -0.198 NA
ENDBRANCH  66  68
ENDBRANCH  64  65
BRANCH  64  74
ATOM     74  C   UNL     1      37.232  70.994  28.966  0.00  0.00    +0.041 C 
BRANCH  74  75
ATOM     75  C   UNL     1      37.753  69.658  29.508  0.00  0.00    +0.091 C 
BRANCH  75  76
ATOM     76  C   UNL     1      37.783  68.680  28.384  0.00  0.00    +0.261 C 
ATOM     77  O   UNL     1      37.361  69.006  27.221  0.00  0.00    -0.272 OA
ATOM     78  N   UNL     1      38.280  67.378  28.587  0.00  0.00    -0.088 NA
ENDBRANCH  75  76
ENDBRANCH  74  75
ENDBRANCH  64  74
ENDBRANCH  62  64
ENDBRANCH  60  61
BRANCH  60  79
ATOM     79  C   UNL     1      34.825  72.536  34.401  0.00  0.00    +0.145 C 
BRANCH  79  80
ATOM     80  C   UNL     1      33.938  71.381  34.295  0.00  0.00    +0.367 C 
ATOM     81  O   UNL     1      34.286  70.391  33.641  0.00  0.00    -0.246 OA
ATOM     82  O   UNL     1      32.703  71.380  34.922  0.00  0.00    -0.246 OA
ENDBRANCH  79  80
ENDBRANCH  60  79
ENDBRANCH  58  60
ENDBRANCH  56  57
BRANCH  56  83
ATOM     83  C   UNL     1      37.219  76.627  34.227  0.00  0.00    +0.057 C 
BRANCH  83  84
ATOM     84  C   UNL     1      37.248  76.794  32.769  0.00  0.00    -0.020 A 
ATOM     85  C   UNL     1      38.262  77.383  32.051  0.00  0.00    -0.001 A 
ATOM     86  C   UNL     1      38.224  77.502  30.679  0.00  0.00    +0.040 A 
ATOM     87  C   UNL     1      37.132  77.012  30.018  0.00  0.00    +0.176 A 
ATOM     88  C   UNL     1      36.075  76.404  30.671  0.00  0.00    +0.040 A 
ATOM     89  C   UNL     1      36.159  76.310  32.043  0.00  0.00    -0.001 A 
BRANCH  87  90
ATOM     90  O   UNL     1      37.042  77.107  28.621  0.00  0.00    -0.322 OA
BRANCH  90  91
ATOM     91  S   UNL     1      36.708  75.651  27.781  0.00  0.00    +0.282 S 
ATOM     92  O   UNL     1      37.790  74.680  28.089  0.00  0.00    -0.105 OA
ATOM     93  O   UNL     1      36.690  75.880  26.295  0.00  0.00    -0.105 OA
ATOM     94  O   UNL     1      35.170  75.075  28.220  0.00  0.00    -0.012 OA
ENDBRANCH  90  91
ENDBRANCH  87  90
ENDBRANCH  83  84
ENDBRANCH  56  83
ENDBRANCH  54  56
ENDBRANCH  49  53
ENDBRANCH   1  49
TORSDOF 38
