REMARK  Name = Cerulenin
REMARK  7 active torsions:
REMARK  status: ('A' for Active; 'I' for Inactive)
REMARK    1  A    between atoms: C_3  and  C_4
REMARK    2  A    between atoms: C_4  and  C_5
REMARK    3  A    between atoms: C_6  and  C_7
REMARK    4  A    between atoms: C_7  and  C_8
REMARK    5  A    between atoms: C_8  and  C_9
REMARK    6  A    between atoms: C_9  and  C_11
REMARK    7  A    between atoms: C_12  and  C_14
REMARK                            x       y       z     vdW  Elec       q    Type
REMARK                         _______ _______ _______ _____ _____    ______ ____
ROOT
ATOM      1  C   UNL     1      47.740  80.642  41.888  0.00  0.00    +0.072 C 
ENDROOT
BRANCH   1   2
ATOM      2  C   UNL     1      46.539  79.778  41.678  0.00  0.00    +0.181 C 
ATOM      3  O   UNL     1      46.059  79.233  42.656  0.00  0.00    -0.293 OA
BRANCH   2   4
ATOM      4  C   UNL     1      45.959  79.594  40.321  0.00  0.00    +0.209 C 
ATOM      5  C   UNL     1      44.993  80.544  39.854  0.00  0.00    +0.229 C 
ATOM      6  O   UNL     1      44.554  79.246  40.452  0.00  0.00    -0.336 OA
BRANCH   5   7
ATOM      7  C   UNL     1      44.476  80.578  38.475  0.00  0.00    +0.291 C 
ATOM      8  O   UNL     1      44.198  81.665  37.894  0.00  0.00    -0.269 OA
ATOM      9  N   UNL     1      44.271  79.391  37.747  0.00  0.00    -0.086 NA
ENDBRANCH   5   7
ENDBRANCH   2   4
ENDBRANCH   1   2
BRANCH   1  10
ATOM     10  C   UNL     1      47.326  82.082  42.255  0.00  0.00    +0.034 C 
BRANCH  10  12
ATOM     11  C   UNL     1      48.506  84.055  43.106  0.00  0.00    -0.026 C 
ATOM     12  C   UNL     1      48.498  82.806  42.750  0.00  0.00    -0.030 C 
BRANCH  11  13
ATOM     13  C   UNL     1      49.654  84.790  43.691  0.00  0.00    +0.051 C 
BRANCH  13  16
ATOM     14  C   UNL     1      52.956  84.077  41.950  0.00  0.00    +0.030 C 
ATOM     15  C   UNL     1      51.681  84.720  42.321  0.00  0.00    -0.030 C 
ATOM     16  C   UNL     1      50.927  84.166  43.250  0.00  0.00    -0.026 C 
ENDBRANCH  13  16
ENDBRANCH  11  13
ENDBRANCH  10  12
ENDBRANCH   1  10
TORSDOF 7
