REMARK  Name = Cetirizine
REMARK  8 active torsions:
REMARK  status: ('A' for Active; 'I' for Inactive)
REMARK    1  A    between atoms: N_3  and  C_14
REMARK    2  A    between atoms: N_6  and  C_7
REMARK    3  A    between atoms: C_7  and  C_8
REMARK    4  A    between atoms: C_8  and  O_9
REMARK    5  A    between atoms: O_9  and  C_10
REMARK    6  A    between atoms: C_10  and  C_11
REMARK    7  A    between atoms: C_14  and  C_15
REMARK    8  A    between atoms: C_14  and  C_21
REMARK                            x       y       z     vdW  Elec       q    Type
REMARK                         _______ _______ _______ _____ _____    ______ ____
ROOT
ATOM      1  C   UNL     1      48.877  81.676  42.188  0.00  0.00    +0.103 C 
ENDROOT
BRANCH   1   2
ATOM      2  C   UNL     1      50.237  82.130  41.874  0.00  0.00    -0.004 A 
ATOM      3  C   UNL     1      51.275  81.710  42.679  0.00  0.00    -0.002 A 
ATOM      4  C   UNL     1      52.595  82.071  42.442  0.00  0.00    +0.011 A 
ATOM      5  C   UNL     1      52.901  82.877  41.370  0.00  0.00    +0.058 A 
ATOM      6  C   UNL     1      51.877  83.301  40.562  0.00  0.00    +0.011 A 
ATOM      7  C   UNL     1      50.546  82.932  40.808  0.00  0.00    -0.002 A 
ATOM      8 CL   UNL     1      54.577  83.352  41.058  0.00  0.00    -0.082 Cl
ENDBRANCH   1   2
BRANCH   1  11
ATOM      9  C   UNL     1      46.433  79.472  40.377  0.00  0.00    +0.090 C 
ATOM     10  C   UNL     1      47.271  79.938  41.528  0.00  0.00    +0.090 C 
ATOM     11  N   UNL     1      48.151  80.980  41.213  0.00  0.00    -0.264 NA
ATOM     12  C   UNL     1      47.396  82.010  40.463  0.00  0.00    +0.090 C 
ATOM     13  C   UNL     1      46.856  81.428  39.204  0.00  0.00    +0.090 C 
ATOM     14  N   UNL     1      45.831  80.456  39.545  0.00  0.00    -0.268 NA
BRANCH  14  15
ATOM     15  C   UNL     1      44.697  81.126  40.082  0.00  0.00    +0.105 C 
BRANCH  15  16
ATOM     16  C   UNL     1      43.368  80.499  39.697  0.00  0.00    +0.160 C 
BRANCH  16  17
ATOM     17  O   UNL     1      43.548  79.653  38.623  0.00  0.00    -0.341 OA
BRANCH  17  18
ATOM     18  C   UNL     1      43.030  78.395  38.771  0.00  0.00    +0.257 C 
BRANCH  18  19
ATOM     19  C   UNL     1      41.609  78.370  38.389  0.00  0.00    +0.394 C 
ATOM     20  O   UNL     1      40.998  77.244  38.430  0.00  0.00    -0.243 OA
ATOM     21  O   UNL     1      40.941  79.519  37.991  0.00  0.00    -0.243 OA
ENDBRANCH  18  19
ENDBRANCH  17  18
ENDBRANCH  16  17
ENDBRANCH  15  16
ENDBRANCH  14  15
ENDBRANCH   1  11
BRANCH   1  22
ATOM     22  C   UNL     1      48.016  82.881  42.544  0.00  0.00    -0.004 A 
ATOM     23  C   UNL     1      46.628  82.756  42.452  0.00  0.00    -0.003 A 
ATOM     24  C   UNL     1      45.798  83.809  42.772  0.00  0.00    -0.000 A 
ATOM     25  C   UNL     1      46.379  84.972  43.179  0.00  0.00    -0.000 A 
ATOM     26  C   UNL     1      47.767  85.127  43.281  0.00  0.00    -0.000 A 
ATOM     27  C   UNL     1      48.587  84.055  42.955  0.00  0.00    -0.003 A 
ENDBRANCH   1  22
TORSDOF 8
