REMARK  Name = Cetrimide
REMARK  13 active torsions:
REMARK  status: ('A' for Active; 'I' for Inactive)
REMARK    1  A    between atoms: C_2  and  C_3
REMARK    2  A    between atoms: C_3  and  C_4
REMARK    3  A    between atoms: C_4  and  C_5
REMARK    4  A    between atoms: C_5  and  C_6
REMARK    5  A    between atoms: C_6  and  C_7
REMARK    6  A    between atoms: C_7  and  C_8
REMARK    7  A    between atoms: C_8  and  C_9
REMARK    8  A    between atoms: C_9  and  C_10
REMARK    9  A    between atoms: C_10  and  C_11
REMARK   10  A    between atoms: C_11  and  C_12
REMARK   11  A    between atoms: C_12  and  C_13
REMARK   12  A    between atoms: C_13  and  C_14
REMARK   13  A    between atoms: C_14  and  N_15
REMARK                            x       y       z     vdW  Elec       q    Type
REMARK                         _______ _______ _______ _____ _____    ______ ____
ROOT
ATOM      1  C   UNL     1      46.538  81.522  39.708  0.00  0.00    -0.000 C 
ENDROOT
BRANCH   1   2
ATOM      2  C   UNL     1      46.943  82.976  39.905  0.00  0.00    +0.000 C 
BRANCH   2   3
ATOM      3  C   UNL     1      48.019  83.158  40.953  0.00  0.00    +0.000 C 
BRANCH   3   4
ATOM      4  C   UNL     1      47.576  82.696  42.283  0.00  0.00    +0.000 C 
BRANCH   4   5
ATOM      5  C   UNL     1      48.475  82.843  43.440  0.00  0.00    +0.000 C 
BRANCH   5   6
ATOM      6  C   UNL     1      49.769  82.162  43.508  0.00  0.00    +0.000 C 
BRANCH   6   7
ATOM      7  C   UNL     1      50.823  82.425  42.515  0.00  0.00    +0.000 C 
BRANCH   7   9
ATOM      8  C   UNL     1      51.800  84.394  43.712  0.00  0.00    +0.000 C 
ATOM      9  C   UNL     1      51.254  83.873  42.408  0.00  0.00    +0.000 C 
ENDBRANCH   7   9
ENDBRANCH   6   7
ENDBRANCH   5   6
ENDBRANCH   4   5
ENDBRANCH   3   4
ENDBRANCH   2   3
ENDBRANCH   1   2
BRANCH   1  10
ATOM     10  C   UNL     1      45.480  81.399  38.652  0.00  0.00    -0.000 C 
BRANCH  10  11
ATOM     11  C   UNL     1      45.021  80.052  38.375  0.00  0.00    -0.000 C 
BRANCH  11  12
ATOM     12  C   UNL     1      44.329  79.174  39.287  0.00  0.00    -0.002 C 
BRANCH  12  13
ATOM     13  C   UNL     1      44.853  78.715  40.572  0.00  0.00    -0.022 C 
BRANCH  13  14
ATOM     14  C   UNL     1      43.880  77.739  41.237  0.00  0.00    -0.073 C 
BRANCH  14  15
ATOM     15  N   UNL     1      43.585  76.561  40.523  0.00  0.00    +0.386 N 
ATOM     16  C   UNL     1      44.557  76.033  39.636  0.00  0.00    -0.096 C 
ATOM     17  C   UNL     1      42.324  76.655  39.768  0.00  0.00    -0.096 C 
ATOM     18  C   UNL     1      43.298  75.521  41.540  0.00  0.00    -0.096 C 
ENDBRANCH  14  15
ENDBRANCH  13  14
ENDBRANCH  12  13
ENDBRANCH  11  12
ENDBRANCH  10  11
ENDBRANCH   1  10
TORSDOF 13
REMARK  Name = Cetrimide
REMARK  13 active torsions:
REMARK  status: ('A' for Active; 'I' for Inactive)
REMARK    1  A    between atoms: C_2  and  C_3
REMARK    2  A    between atoms: C_3  and  C_4
REMARK    3  A    between atoms: C_4  and  C_5
REMARK    4  A    between atoms: C_5  and  C_6
REMARK    5  A    between atoms: C_6  and  C_7
REMARK    6  A    between atoms: C_7  and  C_8
REMARK    7  A    between atoms: C_8  and  C_9
REMARK    8  A    between atoms: C_9  and  C_10
REMARK    9  A    between atoms: C_10  and  C_11
REMARK   10  A    between atoms: C_11  and  C_12
REMARK   11  A    between atoms: C_12  and  C_13
REMARK   12  A    between atoms: C_13  and  C_14
REMARK   13  A    between atoms: C_14  and  N_15
REMARK                            x       y       z     vdW  Elec       q    Type
REMARK                         _______ _______ _______ _____ _____    ______ ____
ROOT
ATOM      1 BR   UNL     1      46.653  80.373  41.004  0.00  0.00    +0.000 Br
ENDROOT
TORSDOF 0
