REMARK  Name = Cetraxate
REMARK  7 active torsions:
REMARK  status: ('A' for Active; 'I' for Inactive)
REMARK    1  A    between atoms: C_3  and  C_9
REMARK    2  A    between atoms: C_6  and  C_7
REMARK    3  A    between atoms: C_9  and  O_11
REMARK    4  A    between atoms: O_11  and  C_12
REMARK    5  A    between atoms: C_15  and  C_18
REMARK    6  A    between atoms: C_18  and  C_19
REMARK    7  A    between atoms: C_19  and  C_20
REMARK                            x       y       z     vdW  Elec       q    Type
REMARK                         _______ _______ _______ _____ _____    ______ ____
ROOT
ATOM      1  O   UNL     1      45.402  79.608  39.878  0.00  0.00    -0.424 OA
ENDROOT
BRANCH   1   2
ATOM      2  C   UNL     1      44.204  79.069  39.481  0.00  0.00    +0.148 A 
ATOM      3  C   UNL     1      43.562  79.504  38.356  0.00  0.00    +0.037 A 
ATOM      4  C   UNL     1      42.338  78.949  37.957  0.00  0.00    -0.001 A 
ATOM      5  C   UNL     1      41.786  77.947  38.723  0.00  0.00    -0.021 A 
ATOM      6  C   UNL     1      42.418  77.495  39.860  0.00  0.00    -0.001 A 
ATOM      7  C   UNL     1      43.633  78.067  40.230  0.00  0.00    +0.037 A 
BRANCH   5   8
ATOM      8  C   UNL     1      40.484  77.362  38.291  0.00  0.00    +0.038 C 
BRANCH   8   9
ATOM      9  C   UNL     1      40.776  76.127  37.504  0.00  0.00    +0.119 C 
BRANCH   9  10
ATOM     10  C   UNL     1      39.579  75.431  37.025  0.00  0.00    +0.365 C 
ATOM     11  O   UNL     1      39.314  75.447  35.797  0.00  0.00    -0.246 OA
ATOM     12  O   UNL     1      38.727  74.755  37.870  0.00  0.00    -0.246 OA
ENDBRANCH   9  10
ENDBRANCH   8   9
ENDBRANCH   5   8
ENDBRANCH   1   2
BRANCH   1  13
ATOM     13  C   UNL     1      45.614  80.962  39.643  0.00  0.00    +0.321 C 
ATOM     14  O   UNL     1      44.947  81.531  38.740  0.00  0.00    -0.250 OA
BRANCH  13  17
ATOM     15  C   UNL     1      48.819  82.896  40.138  0.00  0.00    +0.002 C 
ATOM     16  C   UNL     1      47.659  82.218  39.451  0.00  0.00    +0.011 C 
ATOM     17  C   UNL     1      46.589  81.769  40.406  0.00  0.00    +0.099 C 
ATOM     18  C   UNL     1      47.112  80.901  41.521  0.00  0.00    +0.011 C 
ATOM     19  C   UNL     1      48.624  80.919  41.534  0.00  0.00    +0.002 C 
ATOM     20  C   UNL     1      49.020  82.388  41.545  0.00  0.00    +0.019 C 
BRANCH  20  21
ATOM     21  C   UNL     1      50.450  82.506  42.006  0.00  0.00    +0.109 C 
ATOM     22  N   UNL     1      51.274  83.248  41.107  0.00  0.00    -0.131 NA
ENDBRANCH  20  21
ENDBRANCH  13  17
ENDBRANCH   1  13
TORSDOF 7
