REMARK  Name = Chenodiol
REMARK  4 active torsions:
REMARK  status: ('A' for Active; 'I' for Inactive)
REMARK    1  A    between atoms: C_2  and  C_3
REMARK    2  A    between atoms: C_2  and  C_8
REMARK    3  A    between atoms: C_3  and  C_4
REMARK    4  A    between atoms: C_4  and  C_5
REMARK                            x       y       z     vdW  Elec       q    Type
REMARK                         _______ _______ _______ _____ _____    ______ ____
ROOT
ATOM      1  C   UNL     1      48.147  82.871  41.081  0.00  0.00    +0.000 C 
ATOM      2  C   UNL     1      48.862  82.988  39.753  0.00  0.00    +0.000 C 
ATOM      3  C   UNL     1      47.957  82.067  38.918  0.00  0.00    +0.000 C 
ATOM      4  C   UNL     1      47.572  80.945  39.874  0.00  0.00    +0.002 C 
ATOM      5  C   UNL     1      48.006  81.422  41.254  0.00  0.00    +0.000 C 
ATOM      6  C   UNL     1      47.065  81.008  42.354  0.00  0.00    +0.000 C 
ATOM      7  C   UNL     1      46.481  79.644  41.959  0.00  0.00    +0.000 C 
ATOM      8  C   UNL     1      45.476  79.980  40.926  0.00  0.00    +0.002 C 
ATOM      9  C   UNL     1      46.238  80.407  39.685  0.00  0.00    +0.030 C 
ATOM     10  C   UNL     1      45.247  81.235  38.893  0.00  0.00    +0.152 C 
ATOM     11  C   UNL     1      44.099  80.294  38.525  0.00  0.00    +0.033 C 
ATOM     12  C   UNL     1      43.469  79.608  39.664  0.00  0.00    +0.005 C 
ATOM     13  C   UNL     1      44.433  78.957  40.627  0.00  0.00    +0.000 C 
ATOM     14  C   UNL     1      44.937  77.635  40.196  0.00  0.00    +0.003 C 
ATOM     15  C   UNL     1      44.525  77.163  38.855  0.00  0.00    +0.033 C 
ATOM     16  C   UNL     1      43.167  77.534  38.401  0.00  0.00    +0.152 C 
ATOM     17  C   UNL     1      42.488  78.605  39.185  0.00  0.00    +0.033 C 
ATOM     18  O   UNL     1      42.295  76.432  38.364  0.00  0.00    -0.223 OA
ATOM     19  C   UNL     1      43.628  78.756  41.921  0.00  0.00    +0.000 C 
ATOM     20  O   UNL     1      44.699  82.267  39.605  0.00  0.00    -0.223 OA
ATOM     21  C   UNL     1      49.344  80.795  41.647  0.00  0.00    +0.000 C 
ENDROOT
BRANCH   1  23
ATOM     22  C   UNL     1      47.798  84.790  42.693  0.00  0.00    +0.000 C 
ATOM     23  C   UNL     1      48.696  83.750  42.119  0.00  0.00    +0.001 C 
BRANCH  23  24
ATOM     24  C   UNL     1      49.405  83.073  43.261  0.00  0.00    +0.012 C 
BRANCH  24  25
ATOM     25  C   UNL     1      50.650  82.321  42.871  0.00  0.00    +0.114 C 
BRANCH  25  26
ATOM     26  C   UNL     1      51.830  83.121  42.599  0.00  0.00    +0.365 C 
ATOM     27  O   UNL     1      52.546  82.937  41.601  0.00  0.00    -0.246 OA
ATOM     28  O   UNL     1      52.157  84.126  43.497  0.00  0.00    -0.246 OA
ENDBRANCH  25  26
ENDBRANCH  24  25
ENDBRANCH  23  24
ENDBRANCH   1  23
TORSDOF 4
