REMARK  Name = Chlorothiazide
REMARK  1 active torsions:
REMARK  status: ('A' for Active; 'I' for Inactive)
REMARK    1  A    between atoms: C_5  and  S_8
REMARK                            x       y       z     vdW  Elec       q    Type
REMARK                         _______ _______ _______ _____ _____    ______ ____
ROOT
ATOM      1  C   UNL     1      44.532  80.102  38.870  0.00  0.00    +0.031 A 
ATOM      2  C   UNL     1      45.536  81.008  39.230  0.00  0.00    +0.092 A 
ATOM      3  C   UNL     1      46.297  80.716  40.329  0.00  0.00    +0.146 A 
ATOM      4  C   UNL     1      46.045  79.554  41.026  0.00  0.00    +0.043 A 
ATOM      5  C   UNL     1      45.044  78.658  40.662  0.00  0.00    +0.137 A 
ATOM      6  C   UNL     1      44.271  78.943  39.556  0.00  0.00    +0.078 A 
ATOM      7 CL   UNL     1      43.014  77.813  39.102  0.00  0.00    -0.081 Cl
ATOM      8  S   UNL     1      47.555  81.820  40.806  0.00  0.00    +0.103 S 
ATOM      9  O   UNL     1      47.239  82.424  42.174  0.00  0.00    -0.146 OA
ATOM     10  O   UNL     1      48.893  81.129  40.871  0.00  0.00    -0.146 OA
ATOM     11  N   UNL     1      47.572  83.135  39.715  0.00  0.00    -0.108 NA
ATOM     12  C   UNL     1      46.733  83.167  38.750  0.00  0.00    +0.208 C 
ATOM     13  N   UNL     1      45.756  82.186  38.483  0.00  0.00    -0.189 NA
ENDROOT
BRANCH   5  14
ATOM     14  S   UNL     1      44.773  77.194  41.593  0.00  0.00    +0.094 S 
ATOM     15  O   UNL     1      45.696  77.226  42.796  0.00  0.00    -0.150 OA
ATOM     16  O   UNL     1      43.341  77.137  41.993  0.00  0.00    -0.150 OA
ATOM     17  N   UNL     1      45.121  75.824  40.610  0.00  0.00    +0.039 NA
ENDBRANCH   5  14
TORSDOF 1
