REMARK  Name = Chlortetracycline
REMARK  2 active torsions:
REMARK  status: ('A' for Active; 'I' for Inactive)
REMARK    1  A    between atoms: C_6  and  N_30
REMARK    2  A    between atoms: C_9  and  C_27
REMARK                            x       y       z     vdW  Elec       q    Type
REMARK                         _______ _______ _______ _____ _____    ______ ____
ROOT
ATOM      1  C   UNL     1      48.044  80.472  43.472  0.00  0.00    +0.038 C 
ATOM      2  C   UNL     1      47.539  81.510  42.508  0.00  0.00    +0.150 C 
ATOM      3  C   UNL     1      46.412  81.017  41.641  0.00  0.00    +0.061 C 
ATOM      4  C   UNL     1      46.270  79.500  41.644  0.00  0.00    +0.012 C 
ATOM      5  C   UNL     1      45.492  78.970  40.457  0.00  0.00    +0.065 C 
ATOM      6  C   UNL     1      44.902  77.606  40.737  0.00  0.00    +0.124 C 
ATOM      7  C   UNL     1      43.563  77.460  40.158  0.00  0.00    +0.195 C 
ATOM      8  O   UNL     1      42.624  76.737  40.658  0.00  0.00    -0.290 OA
ATOM      9  C   UNL     1      43.264  78.180  38.925  0.00  0.00    +0.130 C 
ATOM     10  C   UNL     1      43.706  79.420  38.827  0.00  0.00    +0.215 C 
ATOM     11  C   UNL     1      44.457  79.961  39.976  0.00  0.00    +0.237 C 
ATOM     12  C   UNL     1      45.256  81.134  39.447  0.00  0.00    +0.207 C 
ATOM     13  O   UNL     1      44.951  81.717  38.373  0.00  0.00    -0.289 OA
ATOM     14  C   UNL     1      46.392  81.531  40.265  0.00  0.00    +0.057 C 
ATOM     15  C   UNL     1      47.303  82.294  39.751  0.00  0.00    +0.197 C 
ATOM     16  C   UNL     1      48.441  82.702  40.544  0.00  0.00    +0.077 A 
ATOM     17  C   UNL     1      49.405  83.487  39.919  0.00  0.00    +0.199 A 
ATOM     18  C   UNL     1      50.519  83.871  40.609  0.00  0.00    +0.043 A 
ATOM     19  C   UNL     1      50.670  83.474  41.916  0.00  0.00    +0.014 A 
ATOM     20  C   UNL     1      49.688  82.695  42.502  0.00  0.00    +0.056 A 
ATOM     21  C   UNL     1      48.557  82.290  41.840  0.00  0.00    +0.022 A 
ATOM     22 CL   UNL     1      49.910  82.226  44.138  0.00  0.00    -0.082 Cl
ATOM     23  O   UNL     1      49.259  83.890  38.603  0.00  0.00    -0.286 OA
ATOM     24  O   UNL     1      47.213  82.747  38.408  0.00  0.00    -0.287 OA
ATOM     25  O   UNL     1      43.619  80.352  41.018  0.00  0.00    -0.210 OA
ATOM     26  O   UNL     1      43.455  80.163  37.669  0.00  0.00    -0.288 OA
ATOM     27  O   UNL     1      46.921  82.467  43.401  0.00  0.00    -0.221 OA
ENDROOT
BRANCH   9  28
ATOM     28  C   UNL     1      42.478  77.566  37.831  0.00  0.00    +0.290 C 
ATOM     29  O   UNL     1      41.899  76.475  38.045  0.00  0.00    -0.266 OA
ATOM     30  N   UNL     1      42.405  78.227  36.584  0.00  0.00    -0.084 NA
ENDBRANCH   9  28
BRANCH   6  31
ATOM     31  N   UNL     1      45.045  77.167  42.103  0.00  0.00    -0.265 NA
ATOM     32  C   UNL     1      43.936  77.727  42.881  0.00  0.00    +0.090 C 
ATOM     33  C   UNL     1      44.784  75.711  42.106  0.00  0.00    +0.090 C 
ENDBRANCH   6  31
TORSDOF 2
