REMARK  Name = Chloroquine
REMARK  8 active torsions:
REMARK  status: ('A' for Active; 'I' for Inactive)
REMARK    1  A    between atoms: C_2  and  N_3
REMARK    2  A    between atoms: N_3  and  C_4
REMARK    3  A    between atoms: N_3  and  C_6
REMARK    4  A    between atoms: C_6  and  C_7
REMARK    5  A    between atoms: C_7  and  C_8
REMARK    6  A    between atoms: C_8  and  C_9
REMARK    7  A    between atoms: C_9  and  N_11
REMARK    8  A    between atoms: N_11  and  C_12
REMARK                            x       y       z     vdW  Elec       q    Type
REMARK                         _______ _______ _______ _____ _____    ______ ____
ROOT
ATOM      1  N   UNL     1      45.843  78.962  41.001  0.00  0.00    -0.239 NA
ENDROOT
BRANCH   1   2
ATOM      2  C   UNL     1      45.966  80.234  40.402  0.00  0.00    +0.068 A 
ATOM      3  C   UNL     1      46.717  81.246  40.967  0.00  0.00    +0.033 A 
ATOM      4  C   UNL     1      47.383  81.023  42.138  0.00  0.00    +0.004 A 
ATOM      5  C   UNL     1      48.150  82.030  42.730  0.00  0.00    +0.012 A 
ATOM      6  C   UNL     1      48.205  83.240  42.091  0.00  0.00    +0.059 A 
ATOM      7  C   UNL     1      47.560  83.507  40.926  0.00  0.00    +0.031 A 
ATOM      8  C   UNL     1      46.798  82.500  40.342  0.00  0.00    +0.083 A 
ATOM      9  N   UNL     1      46.143  82.713  39.192  0.00  0.00    -0.244 NA
ATOM     10  C   UNL     1      45.405  81.764  38.610  0.00  0.00    +0.100 A 
ATOM     11  C   UNL     1      45.314  80.526  39.210  0.00  0.00    +0.037 A 
ATOM     12 CL   UNL     1      49.166  84.505  42.829  0.00  0.00    -0.082 Cl
ENDBRANCH   1   2
BRANCH   1  13
ATOM     13  C   UNL     1      45.222  77.906  40.199  0.00  0.00    +0.093 C 
ATOM     14  C   UNL     1      45.705  76.532  40.635  0.00  0.00    +0.023 C 
BRANCH  13  15
ATOM     15  C   UNL     1      43.717  77.893  40.411  0.00  0.00    +0.023 C 
BRANCH  15  16
ATOM     16  C   UNL     1      43.125  76.946  39.401  0.00  0.00    +0.019 C 
BRANCH  16  17
ATOM     17  C   UNL     1      41.624  76.881  39.407  0.00  0.00    +0.072 C 
BRANCH  17  18
ATOM     18  N   UNL     1      41.002  76.047  38.470  0.00  0.00    -0.273 NA
BRANCH  18  20
ATOM     19  C   UNL     1      39.888  77.352  36.798  0.00  0.00    +0.019 C 
ATOM     20  C   UNL     1      41.036  76.367  37.101  0.00  0.00    +0.072 C 
ENDBRANCH  18  20
BRANCH  18  21
ATOM     21  C   UNL     1      40.017  75.132  38.898  0.00  0.00    +0.072 C 
ATOM     22  C   UNL     1      40.430  74.261  40.056  0.00  0.00    +0.019 C 
ENDBRANCH  18  21
ENDBRANCH  17  18
ENDBRANCH  16  17
ENDBRANCH  15  16
ENDBRANCH  13  15
ENDBRANCH   1  13
TORSDOF 8
