REMARK  Name = Chlordiazepoxide
REMARK  1 active torsions:
REMARK  status: ('A' for Active; 'I' for Inactive)
REMARK    1  A    between atoms: C_6  and  C_15
REMARK                            x       y       z     vdW  Elec       q    Type
REMARK                         _______ _______ _______ _____ _____    ______ ____
ROOT
ATOM      1  C   UNL     1      49.151  83.178  40.827  0.00  0.00    +0.153 C 
ATOM      2  N   UNL     1      47.940  82.974  40.108  0.00  0.00    -0.253 NA
ATOM      3  C   UNL     1      47.393  81.827  39.942  0.00  0.00    +0.160 C 
ATOM      4  C   UNL     1      46.764  81.627  38.620  0.00  0.00    +0.200 C 
ATOM      5  N   UNL     1      45.427  81.056  38.819  0.00  0.00    -0.199 N 
ATOM      6  C   UNL     1      45.001  79.959  39.612  0.00  0.00    +0.087 C 
ATOM      7  C   UNL     1      45.569  79.489  40.706  0.00  0.00    +0.036 A 
ATOM      8  C   UNL     1      44.863  78.403  41.203  0.00  0.00    +0.014 A 
ATOM      9  C   UNL     1      45.345  77.808  42.351  0.00  0.00    +0.058 A 
ATOM     10  C   UNL     1      46.472  78.244  43.002  0.00  0.00    +0.013 A 
ATOM     11  C   UNL     1      47.176  79.318  42.515  0.00  0.00    +0.020 A 
ATOM     12  C   UNL     1      46.700  79.922  41.364  0.00  0.00    +0.084 A 
ATOM     13  N   UNL     1      47.464  80.902  41.043  0.00  0.00    -0.229 NA
ATOM     14 CL   UNL     1      44.478  76.431  43.011  0.00  0.00    -0.082 Cl
ATOM     15  O   UNL     1      44.402  81.665  38.140  0.00  0.00    -0.084 OA
ENDROOT
BRANCH   6  16
ATOM     16  C   UNL     1      43.782  79.289  39.136  0.00  0.00    +0.018 A 
ATOM     17  C   UNL     1      43.198  78.270  39.857  0.00  0.00    +0.001 A 
ATOM     18  C   UNL     1      42.040  77.641  39.395  0.00  0.00    +0.000 A 
ATOM     19  C   UNL     1      41.444  78.014  38.206  0.00  0.00    +0.000 A 
ATOM     20  C   UNL     1      42.030  79.033  37.487  0.00  0.00    +0.000 A 
ATOM     21  C   UNL     1      43.174  79.649  37.951  0.00  0.00    +0.001 A 
ENDBRANCH   6  16
TORSDOF 1
