REMARK  Name = Chlorpheniramine
REMARK  5 active torsions:
REMARK  status: ('A' for Active; 'I' for Inactive)
REMARK    1  A    between atoms: N_2  and  C_4
REMARK    2  A    between atoms: C_4  and  C_5
REMARK    3  A    between atoms: C_5  and  C_6
REMARK    4  A    between atoms: C_6  and  C_7
REMARK    5  A    between atoms: C_6  and  C_14
REMARK                            x       y       z     vdW  Elec       q    Type
REMARK                         _______ _______ _______ _____ _____    ______ ____
ROOT
ATOM      1  C   UNL     1      44.119  78.309  39.789  0.00  0.00    +0.064 C 
ENDROOT
BRANCH   1   2
ATOM      2  C   UNL     1      44.961  79.515  39.825  0.00  0.00    -0.017 A 
ATOM      3  C   UNL     1      44.704  80.571  38.983  0.00  0.00    -0.003 A 
ATOM      4  C   UNL     1      45.495  81.725  39.014  0.00  0.00    +0.011 A 
ATOM      5  C   UNL     1      46.549  81.823  39.893  0.00  0.00    +0.058 A 
ATOM      6  C   UNL     1      46.809  80.767  40.739  0.00  0.00    +0.011 A 
ATOM      7  C   UNL     1      46.013  79.623  40.697  0.00  0.00    -0.003 A 
ATOM      8 CL   UNL     1      47.544  83.286  39.929  0.00  0.00    -0.082 Cl
ENDBRANCH   1   2
BRANCH   1   9
ATOM      9  C   UNL     1      44.213  77.498  41.019  0.00  0.00    +0.063 A 
ATOM     10  C   UNL     1      43.734  77.919  42.242  0.00  0.00    +0.015 A 
ATOM     11  C   UNL     1      43.810  77.191  43.398  0.00  0.00    +0.003 A 
ATOM     12  C   UNL     1      44.407  75.947  43.336  0.00  0.00    +0.021 A 
ATOM     13  C   UNL     1      44.889  75.517  42.111  0.00  0.00    +0.098 A 
ATOM     14  N   UNL     1      44.796  76.263  40.997  0.00  0.00    -0.248 NA
ENDBRANCH   1   9
BRANCH   1  15
ATOM     15  C   UNL     1      42.686  78.617  39.416  0.00  0.00    +0.028 C 
BRANCH  15  16
ATOM     16  C   UNL     1      42.321  77.903  38.146  0.00  0.00    +0.073 C 
BRANCH  16  18
ATOM     17  C   UNL     1      40.101  77.732  39.098  0.00  0.00    +0.090 C 
ATOM     18  N   UNL     1      41.095  77.173  38.236  0.00  0.00    -0.270 NA
ATOM     19  C   UNL     1      40.627  76.900  36.890  0.00  0.00    +0.090 C 
ENDBRANCH  16  18
ENDBRANCH  15  16
ENDBRANCH   1  15
TORSDOF 5
