REMARK  Name = Chlorhexidine
REMARK  11 active torsions:
REMARK  status: ('A' for Active; 'I' for Inactive)
REMARK    1  A    between atoms: C_6  and  N_7
REMARK    2  A    between atoms: N_9  and  C_10
REMARK    3  A    between atoms: N_11  and  C_12
REMARK    4  A    between atoms: C_12  and  C_13
REMARK    5  A    between atoms: C_13  and  C_14
REMARK    6  A    between atoms: C_14  and  C_15
REMARK    7  A    between atoms: C_15  and  C_16
REMARK    8  A    between atoms: C_16  and  C_17
REMARK    9  A    between atoms: C_17  and  N_18
REMARK   10  A    between atoms: C_19  and  N_21
REMARK   11  A    between atoms: N_24  and  C_25
REMARK                            x       y       z     vdW  Elec       q    Type
REMARK                         _______ _______ _______ _____ _____    ______ ____
ROOT
ATOM      1  C   UNL     1      42.814  78.006  38.537  0.00  0.00    +0.002 C 
ENDROOT
BRANCH   1   2
ATOM      2  C   UNL     1      43.115  79.330  39.190  0.00  0.00    +0.026 C 
BRANCH   2   3
ATOM      3  C   UNL     1      44.561  79.709  39.103  0.00  0.00    +0.129 C 
BRANCH   3   5
ATOM      4  C   UNL     1      45.810  81.669  39.593  0.00  0.00    +0.269 C 
ATOM      5  N   UNL     1      44.720  81.007  39.731  0.00  0.00    -0.235 NA
ATOM      6  N   UNL     1      45.916  82.591  38.522  0.00  0.00    -0.105 NA
BRANCH   4   9
ATOM      7  N   UNL     1      47.306  81.257  42.795  0.00  0.00    -0.209 NA
ATOM      8  C   UNL     1      46.624  80.857  41.619  0.00  0.00    +0.273 C 
ATOM      9  N   UNL     1      46.867  81.458  40.510  0.00  0.00    -0.171 NA
ATOM     10  N   UNL     1      45.674  79.786  41.737  0.00  0.00    -0.105 NA
BRANCH   7  16
ATOM     11  C   UNL     1      48.267  83.428  43.264  0.00  0.00    +0.020 A 
ATOM     12  C   UNL     1      49.295  84.345  43.244  0.00  0.00    +0.013 A 
ATOM     13  C   UNL     1      50.514  84.020  42.688  0.00  0.00    +0.058 A 
ATOM     14  C   UNL     1      50.673  82.762  42.157  0.00  0.00    +0.013 A 
ATOM     15  C   UNL     1      49.620  81.837  42.182  0.00  0.00    +0.020 A 
ATOM     16  C   UNL     1      48.408  82.143  42.728  0.00  0.00    +0.085 A 
ATOM     17 CL   UNL     1      51.840  85.187  42.657  0.00  0.00    -0.082 Cl
ENDBRANCH   7  16
ENDBRANCH   4   9
ENDBRANCH   3   5
ENDBRANCH   2   3
ENDBRANCH   1   2
BRANCH   1  18
ATOM     18  C   UNL     1      41.399  77.599  38.775  0.00  0.00    +0.002 C 
BRANCH  18  19
ATOM     19  C   UNL     1      40.627  77.644  37.499  0.00  0.00    +0.026 C 
BRANCH  19  20
ATOM     20  C   UNL     1      39.217  77.162  37.584  0.00  0.00    +0.129 C 
BRANCH  20  21
ATOM     21  N   UNL     1      39.134  75.751  37.256  0.00  0.00    -0.235 NA
ATOM     22  C   UNL     1      37.961  75.172  37.170  0.00  0.00    +0.269 C 
ATOM     23  N   UNL     1      36.794  75.974  37.085  0.00  0.00    -0.105 NA
BRANCH  22  24
ATOM     24  N   UNL     1      37.899  73.752  37.164  0.00  0.00    -0.171 NA
ATOM     25  C   UNL     1      38.949  73.106  36.737  0.00  0.00    +0.273 C 
ATOM     26  N   UNL     1      38.882  71.754  36.293  0.00  0.00    -0.105 NA
ATOM     27  N   UNL     1      40.162  73.840  36.753  0.00  0.00    -0.209 NA
BRANCH  27  28
ATOM     28  C   UNL     1      40.280  75.132  37.297  0.00  0.00    +0.085 A 
ATOM     29  C   UNL     1      41.540  75.753  37.190  0.00  0.00    +0.020 A 
ATOM     30  C   UNL     1      41.725  77.021  37.693  0.00  0.00    +0.013 A 
ATOM     31  C   UNL     1      40.681  77.690  38.304  0.00  0.00    +0.058 A 
ATOM     32  C   UNL     1      39.473  77.061  38.392  0.00  0.00    +0.013 A 
ATOM     33  C   UNL     1      39.240  75.787  37.900  0.00  0.00    +0.020 A 
ATOM     34 CL   UNL     1      40.958  79.301  38.931  0.00  0.00    -0.082 Cl
ENDBRANCH  27  28
ENDBRANCH  22  24
ENDBRANCH  20  21
ENDBRANCH  19  20
ENDBRANCH  18  19
ENDBRANCH   1  18
TORSDOF 11
