REMARK  Name = Cholestyramine
REMARK  6 active torsions:
REMARK  status: ('A' for Active; 'I' for Inactive)
REMARK    1  A    between atoms: C_2  and  C_3
REMARK    2  A    between atoms: C_6  and  C_9
REMARK    3  A    between atoms: C_9  and  C_11
REMARK    4  A    between atoms: C_11  and  C_12
REMARK    5  A    between atoms: C_12  and  C_13
REMARK    6  A    between atoms: C_16  and  N_19
REMARK                            x       y       z     vdW  Elec       q    Type
REMARK                         _______ _______ _______ _____ _____    ______ ____
ROOT
ATOM      1  C   UNL     1      46.153  80.367  39.773  0.00  0.00    +0.009 C 
ENDROOT
BRANCH   1   2
ATOM      2  C   UNL     1      46.161  81.874  39.871  0.00  0.00    +0.023 C 
ATOM      3  C   UNL     1      46.274  82.403  38.452  0.00  0.00    +0.005 C 
BRANCH   2   7
ATOM      4  C   UNL     1      49.225  83.379  42.423  0.00  0.00    -0.022 A 
ATOM      5  C   UNL     1      49.513  82.527  41.378  0.00  0.00    -0.005 A 
ATOM      6  C   UNL     1      48.510  82.033  40.540  0.00  0.00    -0.005 A 
ATOM      7  C   UNL     1      47.200  82.396  40.752  0.00  0.00    -0.023 A 
ATOM      8  C   UNL     1      46.901  83.247  41.794  0.00  0.00    -0.005 A 
ATOM      9  C   UNL     1      47.910  83.739  42.630  0.00  0.00    -0.005 A 
BRANCH   4  11
ATOM     10  C   UNL     1      50.379  83.058  44.581  0.00  0.00    +0.005 C 
ATOM     11  C   UNL     1      50.296  83.913  43.325  0.00  0.00    +0.026 C 
ENDBRANCH   4  11
ENDBRANCH   2   7
ENDBRANCH   1   2
BRANCH   1  12
ATOM     12  C   UNL     1      45.085  79.884  40.764  0.00  0.00    +0.027 C 
BRANCH  12  13
ATOM     13  C   UNL     1      44.060  79.052  40.080  0.00  0.00    -0.022 A 
ATOM     14  C   UNL     1      43.401  79.532  38.969  0.00  0.00    -0.003 A 
ATOM     15  C   UNL     1      42.447  78.782  38.317  0.00  0.00    +0.013 A 
ATOM     16  C   UNL     1      42.100  77.502  38.746  0.00  0.00    +0.034 A 
ATOM     17  C   UNL     1      42.757  77.020  39.857  0.00  0.00    +0.013 A 
ATOM     18  C   UNL     1      43.726  77.788  40.516  0.00  0.00    -0.003 A 
BRANCH  16  19
ATOM     19  N   UNL     1      41.135  76.726  38.097  0.00  0.00    -0.351 NA
ATOM     20  C   UNL     1      41.795  75.661  37.333  0.00  0.00    +0.096 C 
ATOM     21  C   UNL     1      40.280  76.105  39.087  0.00  0.00    +0.096 C 
ATOM     22  C   UNL     1      40.269  77.454  37.200  0.00  0.00    +0.096 C 
ENDBRANCH  16  19
ENDBRANCH  12  13
ENDBRANCH   1  12
TORSDOF 6
