REMARK  Name = Cholic_Acid
REMARK  4 active torsions:
REMARK  status: ('A' for Active; 'I' for Inactive)
REMARK    1  A    between atoms: C_2  and  C_3
REMARK    2  A    between atoms: C_2  and  C_8
REMARK    3  A    between atoms: C_3  and  C_4
REMARK    4  A    between atoms: C_4  and  C_5
REMARK                            x       y       z     vdW  Elec       q    Type
REMARK                         _______ _______ _______ _____ _____    ______ ____
ROOT
ATOM      1  C   UNL     1      46.742  81.413  40.623  0.00  0.00    +0.002 C 
ATOM      2  C   UNL     1      46.535  80.834  42.053  0.00  0.00    +0.000 C 
ATOM      3  C   UNL     1      45.336  79.912  41.867  0.00  0.00    +0.000 C 
ATOM      4  C   UNL     1      45.800  79.212  40.620  0.00  0.00    +0.005 C 
ATOM      5  C   UNL     1      46.285  80.348  39.757  0.00  0.00    +0.028 C 
ATOM      6  C   UNL     1      45.141  80.896  38.898  0.00  0.00    +0.152 C 
ATOM      7  C   UNL     1      44.227  79.888  38.328  0.00  0.00    +0.033 C 
ATOM      8  C   UNL     1      43.658  78.938  39.361  0.00  0.00    +0.005 C 
ATOM      9  C   UNL     1      44.842  78.271  40.006  0.00  0.00    +0.031 C 
ATOM     10  C   UNL     1      44.327  77.314  41.036  0.00  0.00    +0.152 C 
ATOM     11  C   UNL     1      42.820  77.376  41.157  0.00  0.00    +0.033 C 
ATOM     12  C   UNL     1      42.148  77.094  39.822  0.00  0.00    +0.005 C 
ATOM     13  C   UNL     1      42.747  77.953  38.711  0.00  0.00    +0.000 C 
ATOM     14  C   UNL     1      41.598  78.707  38.055  0.00  0.00    +0.003 C 
ATOM     15  C   UNL     1      40.510  77.731  37.609  0.00  0.00    +0.033 C 
ATOM     16  C   UNL     1      39.873  77.043  38.779  0.00  0.00    +0.152 C 
ATOM     17  C   UNL     1      40.671  77.397  40.015  0.00  0.00    +0.033 C 
ATOM     18  O   UNL     1      39.956  75.642  38.650  0.00  0.00    -0.223 OA
ATOM     19  C   UNL     1      43.389  77.113  37.653  0.00  0.00    +0.000 C 
ATOM     20  O   UNL     1      44.620  75.968  40.715  0.00  0.00    -0.223 OA
ATOM     21  O   UNL     1      44.421  81.878  39.596  0.00  0.00    -0.223 OA
ATOM     22  C   UNL     1      47.241  79.740  38.772  0.00  0.00    +0.003 C 
ENDROOT
BRANCH   1  24
ATOM     23  C   UNL     1      48.216  83.430  40.047  0.00  0.00    +0.000 C 
ATOM     24  C   UNL     1      48.048  82.066  40.576  0.00  0.00    +0.001 C 
BRANCH  24  25
ATOM     25  C   UNL     1      48.971  81.771  41.701  0.00  0.00    +0.012 C 
BRANCH  25  26
ATOM     26  C   UNL     1      50.398  81.526  41.416  0.00  0.00    +0.114 C 
BRANCH  26  27
ATOM     27  C   UNL     1      51.214  82.457  42.255  0.00  0.00    +0.365 C 
ATOM     28  O   UNL     1      50.694  82.957  43.272  0.00  0.00    -0.246 OA
ATOM     29  O   UNL     1      52.522  82.787  41.949  0.00  0.00    -0.246 OA
ENDBRANCH  26  27
ENDBRANCH  25  26
ENDBRANCH  24  25
ENDBRANCH   1  24
TORSDOF 4
