REMARK  Name = Cholecalciferol
REMARK  6 active torsions:
REMARK  status: ('A' for Active; 'I' for Inactive)
REMARK    1  A    between atoms: C_2  and  C_4
REMARK    2  A    between atoms: C_4  and  C_5
REMARK    3  A    between atoms: C_5  and  C_6
REMARK    4  A    between atoms: C_6  and  C_7
REMARK    5  A    between atoms: C_7  and  C_9
REMARK    6  A    between atoms: C_18  and  C_19
REMARK                            x       y       z     vdW  Elec       q    Type
REMARK                         _______ _______ _______ _____ _____    ______ ____
ROOT
ATOM      1  C   UNL     1      51.373  82.394  44.093  0.00  0.00    +0.000 C 
ATOM      2  C   UNL     1      51.822  81.526  42.955  0.00  0.00    +0.000 C 
ATOM      3  C   UNL     1      50.464  81.170  42.303  0.00  0.00    +0.004 C 
ATOM      4  C   UNL     1      49.814  82.491  42.366  0.00  0.00    +0.018 C 
ATOM      5  C   UNL     1      49.978  82.849  43.835  0.00  0.00    +0.003 C 
ATOM      6  C   UNL     1      49.695  84.299  43.913  0.00  0.00    +0.001 C 
ATOM      7  C   UNL     1      48.196  84.493  43.639  0.00  0.00    +0.004 C 
ATOM      8  C   UNL     1      47.794  83.884  42.324  0.00  0.00    +0.022 C 
ATOM      9  C   UNL     1      48.363  82.525  42.123  0.00  0.00    -0.045 C 
ATOM     10  C   UNL     1      47.648  81.488  41.770  0.00  0.00    -0.009 C 
ATOM     11  C   UNL     1      48.977  81.996  44.583  0.00  0.00    +0.000 C 
ENDROOT
BRANCH  10  12
ATOM     12  C   UNL     1      46.202  81.428  41.721  0.00  0.00    -0.005 C 
ATOM     13  C   UNL     1      45.550  80.884  40.691  0.00  0.00    -0.024 C 
ATOM     14  C   UNL     1      45.062  81.783  39.641  0.00  0.00    +0.059 C 
ATOM     15  C   UNL     1      44.381  81.159  38.504  0.00  0.00    +0.157 C 
ATOM     16  C   UNL     1      44.277  79.685  38.474  0.00  0.00    +0.038 C 
ATOM     17  C   UNL     1      44.149  79.028  39.817  0.00  0.00    +0.029 C 
ATOM     18  C   UNL     1      45.333  79.445  40.613  0.00  0.00    -0.026 C 
ATOM     19  C   UNL     1      46.137  78.588  41.208  0.00  0.00    -0.005 C 
ATOM     20  O   UNL     1      44.995  81.563  37.297  0.00  0.00    -0.223 OA
ENDBRANCH  10  12
BRANCH   1  21
ATOM     21  C   UNL     1      52.302  83.390  44.624  0.00  0.00    +0.000 C 
ATOM     22  C   UNL     1      52.593  84.618  43.826  0.00  0.00    +0.000 C 
BRANCH  21  23
ATOM     23  C   UNL     1      53.542  82.770  45.207  0.00  0.00    +0.000 C 
BRANCH  23  24
ATOM     24  C   UNL     1      53.986  83.275  46.526  0.00  0.00    +0.000 C 
BRANCH  24  25
ATOM     25  C   UNL     1      54.086  82.107  47.530  0.00  0.00    +0.000 C 
BRANCH  25  27
ATOM     26  C   UNL     1      53.792  82.274  50.019  0.00  0.00    +0.000 C 
ATOM     27  C   UNL     1      54.586  82.717  48.823  0.00  0.00    +0.000 C 
ATOM     28  C   UNL     1      54.569  84.219  48.782  0.00  0.00    +0.000 C 
ENDBRANCH  25  27
ENDBRANCH  24  25
ENDBRANCH  23  24
ENDBRANCH  21  23
ENDBRANCH   1  21
TORSDOF 6
