REMARK  Name = Choline_alfoscerate
REMARK  8 active torsions:
REMARK  status: ('A' for Active; 'I' for Inactive)
REMARK    1  A    between atoms: N_2  and  C_5
REMARK    2  A    between atoms: C_5  and  C_6
REMARK    3  A    between atoms: C_6  and  O_7
REMARK    4  A    between atoms: O_7  and  P_8
REMARK    5  A    between atoms: P_8  and  O_11
REMARK    6  A    between atoms: O_11  and  C_12
REMARK    7  A    between atoms: C_12  and  C_13
REMARK    8  A    between atoms: C_13  and  C_14
REMARK                            x       y       z     vdW  Elec       q    Type
REMARK                         _______ _______ _______ _____ _____    ______ ____
ROOT
ATOM      1  P   UNL     1      43.713  79.299  38.964  0.00  0.00    +0.506 P 
ATOM      2  O   UNL     1      44.925  78.506  38.521  0.00  0.00    -0.225 OA
ATOM      3  O   UNL     1      43.356  78.808  40.543  0.00  0.00    -0.116 OA
ENDROOT
BRANCH   1   4
ATOM      4  O   UNL     1      42.368  78.961  38.012  0.00  0.00    -0.274 OA
BRANCH   4   5
ATOM      5  C   UNL     1      41.884  77.671  38.203  0.00  0.00    +0.132 C 
BRANCH   5   6
ATOM      6  C   UNL     1      40.660  77.539  37.296  0.00  0.00    -0.040 C 
BRANCH   6   8
ATOM      7  C   UNL     1      40.798  75.168  37.011  0.00  0.00    -0.096 C 
ATOM      8  N   UNL     1      39.989  76.290  37.459  0.00  0.00    +0.387 N 
ATOM      9  C   UNL     1      38.680  76.270  36.819  0.00  0.00    -0.096 C 
ATOM     10  C   UNL     1      39.741  76.082  38.889  0.00  0.00    -0.096 C 
ENDBRANCH   6   8
ENDBRANCH   5   6
ENDBRANCH   4   5
ENDBRANCH   1   4
BRANCH   1  11
ATOM     11  O   UNL     1      44.126  80.916  38.967  0.00  0.00    -0.269 OA
BRANCH  11  12
ATOM     12  C   UNL     1      45.063  81.145  39.968  0.00  0.00    +0.189 C 
BRANCH  12  13
ATOM     13  C   UNL     1      46.329  81.784  39.386  0.00  0.00    +0.215 C 
ATOM     14  O   UNL     1      45.927  82.769  38.498  0.00  0.00    -0.218 OA
BRANCH  13  15
ATOM     15  C   UNL     1      47.104  82.339  40.554  0.00  0.00    +0.217 C 
ATOM     16  O   UNL     1      48.355  82.807  40.184  0.00  0.00    -0.217 OA
ENDBRANCH  13  15
ENDBRANCH  12  13
ENDBRANCH  11  12
ENDBRANCH   1  11
TORSDOF 8
