REMARK  Name = Chondroitin
REMARK  5 active torsions:
REMARK  status: ('A' for Active; 'I' for Inactive)
REMARK    1  A    between atoms: N_4  and  C_5
REMARK    2  A    between atoms: C_6  and  O_15
REMARK    3  A    between atoms: C_8  and  C_12
REMARK    4  A    between atoms: O_15  and  C_16
REMARK    5  A    between atoms: C_20  and  C_22
REMARK                            x       y       z     vdW  Elec       q    Type
REMARK                         _______ _______ _______ _____ _____    ______ ____
ROOT
ATOM      1  C   UNL     1      43.122  78.336  39.566  0.00  0.00    +0.184 C 
ATOM      2  C   UNL     1      44.619  78.388  39.510  0.00  0.00    +0.177 C 
ATOM      3  C   UNL     1      45.102  77.089  40.126  0.00  0.00    +0.210 C 
ATOM      4  C   UNL     1      44.757  77.131  41.594  0.00  0.00    +0.183 C 
ATOM      5  O   UNL     1      43.694  77.986  41.868  0.00  0.00    -0.324 OA
ATOM      6  C   UNL     1      42.705  77.755  40.897  0.00  0.00    +0.292 C 
ATOM      7  O   UNL     1      42.504  76.376  40.849  0.00  0.00    -0.188 OA
ATOM      8  O   UNL     1      46.474  76.924  39.923  0.00  0.00    -0.218 OA
ENDROOT
BRANCH   1  12
ATOM      9  C   UNL     1      41.493  77.327  36.271  0.00  0.00    +0.096 C 
ATOM     10  C   UNL     1      41.545  77.765  37.685  0.00  0.00    +0.242 C 
ATOM     11  O   UNL     1      40.598  78.441  38.180  0.00  0.00    -0.273 OA
ATOM     12  N   UNL     1      42.669  77.432  38.527  0.00  0.00    -0.199 NA
ENDBRANCH   1  12
BRANCH   4  13
ATOM     13  C   UNL     1      45.985  77.494  42.382  0.00  0.00    +0.214 C 
ATOM     14  O   UNL     1      45.956  76.981  43.674  0.00  0.00    -0.218 OA
ENDBRANCH   4  13
BRANCH   2  15
ATOM     15  O   UNL     1      45.177  79.391  40.271  0.00  0.00    -0.316 OA
BRANCH  15  16
ATOM     16  C   UNL     1      46.060  80.204  39.586  0.00  0.00    +0.322 C 
ATOM     17  C   UNL     1      45.463  81.534  39.216  0.00  0.00    +0.256 C 
ATOM     18  C   UNL     1      46.381  82.676  39.564  0.00  0.00    +0.214 C 
ATOM     19  C   UNL     1      47.052  82.513  40.854  0.00  0.00    +0.053 C 
ATOM     20  C   UNL     1      47.512  81.291  41.173  0.00  0.00    +0.219 C 
ATOM     21  O   UNL     1      47.308  80.303  40.252  0.00  0.00    -0.444 OA
ATOM     22  O   UNL     1      47.346  82.902  38.586  0.00  0.00    -0.215 OA
ATOM     23  O   UNL     1      45.259  81.591  37.838  0.00  0.00    -0.213 OA
BRANCH  20  24
ATOM     24  C   UNL     1      48.185  81.122  42.461  0.00  0.00    +0.421 C 
ATOM     25  O   UNL     1      48.056  80.034  43.058  0.00  0.00    -0.237 OA
ATOM     26  O   UNL     1      48.949  82.106  43.039  0.00  0.00    -0.237 OA
ENDBRANCH  20  24
ENDBRANCH  15  16
ENDBRANCH   2  15
TORSDOF 5
