REMARK  Name = Ciclosporin
REMARK  15 active torsions:
REMARK  status: ('A' for Active; 'I' for Inactive)
REMARK    1  A    between atoms: C_2  and  C_3
REMARK    2  A    between atoms: C_11  and  C_80
REMARK    3  A    between atoms: C_15  and  C_77
REMARK    4  A    between atoms: C_19  and  C_72
REMARK    5  A    between atoms: C_31  and  C_65
REMARK    6  A    between atoms: C_35  and  C_60
REMARK    7  A    between atoms: C_39  and  C_56
REMARK    8  A    between atoms: C_43  and  C_47
REMARK    9  A    between atoms: C_47  and  C_48
REMARK   10  A    between atoms: C_48  and  C_50
REMARK   11  A    between atoms: C_50  and  C_51
REMARK   12  A    between atoms: C_60  and  C_61
REMARK   13  A    between atoms: C_65  and  C_66
REMARK   14  A    between atoms: C_72  and  C_73
REMARK   15  A    between atoms: C_80  and  C_81
REMARK                            x       y       z     vdW  Elec       q    Type
REMARK                         _______ _______ _______ _____ _____    ______ ____
ROOT
ATOM      1  C   UNL     1      44.794  80.269  39.441  0.00  0.00    +0.171 C 
ATOM      2  C   UNL     1      46.013  80.941  38.927  0.00  0.00    +0.246 C 
ATOM      3  O   UNL     1      46.087  80.938  37.633  0.00  0.00    -0.273 OA
ATOM      4  N   UNL     1      47.049  81.550  39.657  0.00  0.00    -0.268 N 
ATOM      5  C   UNL     1      47.616  81.138  40.908  0.00  0.00    +0.179 C 
ATOM      6  C   UNL     1      49.093  81.377  40.854  0.00  0.00    +0.246 C 
ATOM      7  O   UNL     1      49.691  80.937  39.830  0.00  0.00    -0.273 OA
ATOM      8  N   UNL     1      49.828  82.050  41.863  0.00  0.00    -0.270 N 
ATOM      9  C   UNL     1      49.486  81.974  43.265  0.00  0.00    +0.154 C 
ATOM     10  C   UNL     1      50.509  81.103  43.955  0.00  0.00    +0.260 C 
ATOM     11  O   UNL     1      51.703  81.363  43.577  0.00  0.00    -0.272 OA
ATOM     12  N   UNL     1      50.298  80.117  44.890  0.00  0.00    -0.196 NA
ATOM     13  C   UNL     1      49.515  80.148  46.113  0.00  0.00    +0.171 C 
ATOM     14  C   UNL     1      48.817  78.869  46.235  0.00  0.00    +0.246 C 
ATOM     15  O   UNL     1      47.542  78.948  45.971  0.00  0.00    -0.273 OA
ATOM     16  N   UNL     1      49.238  77.579  46.575  0.00  0.00    -0.270 N 
ATOM     17  C   UNL     1      50.030  77.178  47.737  0.00  0.00    +0.154 C 
ATOM     18  C   UNL     1      49.261  76.234  48.604  0.00  0.00    +0.260 C 
ATOM     19  O   UNL     1      49.208  76.572  49.857  0.00  0.00    -0.272 OA
ATOM     20  N   UNL     1      48.594  75.066  48.308  0.00  0.00    -0.196 NA
ATOM     21  C   UNL     1      48.968  73.770  47.831  0.00  0.00    +0.173 C 
ATOM     22  C   UNL     1      48.087  72.695  48.428  0.00  0.00    +0.262 C 
ATOM     23  O   UNL     1      48.492  72.199  49.541  0.00  0.00    -0.271 OA
ATOM     24  N   UNL     1      46.907  72.195  47.915  0.00  0.00    -0.196 NA
ATOM     25  C   UNL     1      46.651  71.530  46.641  0.00  0.00    +0.171 C 
ATOM     26  C   UNL     1      45.398  72.104  46.097  0.00  0.00    +0.246 C 
ATOM     27  O   UNL     1      45.348  73.384  46.233  0.00  0.00    -0.273 OA
ATOM     28  N   UNL     1      44.321  71.437  45.485  0.00  0.00    -0.270 N 
ATOM     29  C   UNL     1      44.345  70.271  44.633  0.00  0.00    +0.152 C 
ATOM     30  C   UNL     1      43.145  70.240  43.792  0.00  0.00    +0.244 C 
ATOM     31  O   UNL     1      42.058  70.040  44.482  0.00  0.00    -0.273 OA
ATOM     32  N   UNL     1      42.916  70.377  42.423  0.00  0.00    -0.270 N 
ATOM     33  C   UNL     1      43.506  71.269  41.457  0.00  0.00    +0.152 C 
ATOM     34  C   UNL     1      43.528  72.685  41.937  0.00  0.00    +0.244 C 
ATOM     35  O   UNL     1      44.468  72.900  42.791  0.00  0.00    -0.273 OA
ATOM     36  N   UNL     1      42.746  73.801  41.651  0.00  0.00    -0.270 N 
ATOM     37  C   UNL     1      42.625  74.610  40.451  0.00  0.00    +0.152 C 
ATOM     38  C   UNL     1      42.791  76.066  40.797  0.00  0.00    +0.244 C 
ATOM     39  O   UNL     1      43.582  76.167  41.842  0.00  0.00    -0.273 OA
ATOM     40  N   UNL     1      42.316  77.242  40.283  0.00  0.00    -0.268 N 
ATOM     41  C   UNL     1      42.544  77.937  39.006  0.00  0.00    +0.184 C 
ATOM     42  C   UNL     1      43.952  77.999  38.592  0.00  0.00    +0.262 C 
ATOM     43  O   UNL     1      44.437  77.322  37.653  0.00  0.00    -0.271 OA
ATOM     44  N   UNL     1      44.912  78.851  39.236  0.00  0.00    -0.196 NA
ATOM     45  C   UNL     1      41.411  78.014  41.204  0.00  0.00    +0.115 C 
ATOM     46  C   UNL     1      41.876  74.338  42.738  0.00  0.00    +0.115 C 
ATOM     47  C   UNL     1      41.826  69.470  41.931  0.00  0.00    +0.115 C 
ATOM     48  C   UNL     1      42.994  72.027  45.733  0.00  0.00    +0.115 C 
ATOM     49  C   UNL     1      47.792  71.642  45.668  0.00  0.00    +0.033 C 
ATOM     50  C   UNL     1      50.375  73.332  48.157  0.00  0.00    +0.033 C 
ATOM     51  C   UNL     1      48.852  76.442  45.722  0.00  0.00    +0.115 C 
ATOM     52  C   UNL     1      50.997  82.821  41.424  0.00  0.00    +0.115 C 
ATOM     53  C   UNL     1      47.610  82.760  39.030  0.00  0.00    +0.115 C 
ENDROOT
BRANCH  37  54
ATOM     54  C   UNL     1      43.485  74.288  39.298  0.00  0.00    +0.027 C 
ATOM     55  C   UNL     1      44.888  74.780  39.329  0.00  0.00    +0.002 C 
ATOM     56  C   UNL     1      43.294  72.897  38.752  0.00  0.00    +0.002 C 
ENDBRANCH  37  54
BRANCH  13  57
ATOM     57  C   UNL     1      50.360  80.584  47.257  0.00  0.00    +0.029 C 
ATOM     58  C   UNL     1      51.763  81.039  46.808  0.00  0.00    +0.002 C 
ATOM     59  C   UNL     1      49.757  81.898  47.780  0.00  0.00    +0.002 C 
ENDBRANCH  13  57
BRANCH   1  61
ATOM     60  C   UNL     1      43.574  81.933  40.756  0.00  0.00    +0.002 C 
ATOM     61  C   UNL     1      44.438  80.685  40.832  0.00  0.00    +0.031 C 
ENDBRANCH   1  61
BRANCH  41  62
ATOM     62  C   UNL     1      41.476  77.828  38.019  0.00  0.00    +0.179 C 
ATOM     63  O   UNL     1      41.877  78.491  36.816  0.00  0.00    -0.221 OA
BRANCH  62  64
ATOM     64  C   UNL     1      40.044  77.984  38.279  0.00  0.00    +0.037 C 
ATOM     65  C   UNL     1      39.590  78.648  39.526  0.00  0.00    +0.003 C 
BRANCH  64  66
ATOM     66  C   UNL     1      39.484  76.533  38.376  0.00  0.00    +0.028 C 
BRANCH  66  67
ATOM     67  C   UNL     1      39.456  75.936  37.016  0.00  0.00    -0.031 C 
ATOM     68  C   UNL     1      38.377  75.513  36.401  0.00  0.00    -0.030 C 
ATOM     69  C   UNL     1      38.379  74.959  35.021  0.00  0.00    +0.030 C 
ENDBRANCH  66  67
ENDBRANCH  64  66
ENDBRANCH  62  64
ENDBRANCH  41  62
BRANCH  33  70
ATOM     70  C   UNL     1      44.770  70.786  40.905  0.00  0.00    +0.029 C 
BRANCH  70  71
ATOM     71  C   UNL     1      46.064  71.180  41.549  0.00  0.00    +0.002 C 
ATOM     72  C   UNL     1      46.323  70.588  42.901  0.00  0.00    +0.000 C 
ATOM     73  C   UNL     1      46.337  72.656  41.591  0.00  0.00    +0.000 C 
ENDBRANCH  70  71
ENDBRANCH  33  70
BRANCH  29  74
ATOM     74  C   UNL     1      44.812  69.005  45.199  0.00  0.00    +0.029 C 
BRANCH  74  75
ATOM     75  C   UNL     1      45.907  68.218  44.621  0.00  0.00    +0.002 C 
ATOM     76  C   UNL     1      45.594  67.015  43.820  0.00  0.00    +0.000 C 
ATOM     77  C   UNL     1      46.994  69.084  43.992  0.00  0.00    +0.000 C 
ENDBRANCH  74  75
ENDBRANCH  29  74
BRANCH  17  78
ATOM     78  C   UNL     1      51.397  76.676  47.358  0.00  0.00    +0.029 C 
BRANCH  78  79
ATOM     79  C   UNL     1      52.466  77.572  47.877  0.00  0.00    +0.002 C 
ATOM     80  C   UNL     1      52.330  77.650  49.406  0.00  0.00    +0.000 C 
ATOM     81  C   UNL     1      52.407  78.928  47.237  0.00  0.00    +0.000 C 
ENDBRANCH  78  79
ENDBRANCH  17  78
BRANCH   9  82
ATOM     82  C   UNL     1      49.518  83.292  43.964  0.00  0.00    +0.029 C 
BRANCH  82  83
ATOM     83  C   UNL     1      50.698  84.161  43.782  0.00  0.00    +0.002 C 
ATOM     84  C   UNL     1      51.316  84.238  42.437  0.00  0.00    +0.000 C 
ATOM     85  C   UNL     1      51.791  83.621  44.727  0.00  0.00    +0.000 C 
ENDBRANCH  82  83
ENDBRANCH   9  82
TORSDOF 15
