REMARK  Name = Ciclesonide
REMARK  6 active torsions:
REMARK  status: ('A' for Active; 'I' for Inactive)
REMARK    1  A    between atoms: C_2  and  C_4
REMARK    2  A    between atoms: C_4  and  O_6
REMARK    3  A    between atoms: O_6  and  C_7
REMARK    4  A    between atoms: C_7  and  C_8
REMARK    5  A    between atoms: C_8  and  C_10
REMARK    6  A    between atoms: C_32  and  C_34
REMARK                            x       y       z     vdW  Elec       q    Type
REMARK                         _______ _______ _______ _____ _____    ______ ____
ROOT
ATOM      1  C   UNL     1      47.880  80.635  41.392  0.00  0.00    +0.174 C 
ATOM      2  C   UNL     1      46.675  80.083  42.144  0.00  0.00    +0.149 C 
ATOM      3  C   UNL     1      46.089  79.031  41.232  0.00  0.00    +0.033 C 
ATOM      4  C   UNL     1      46.894  79.064  40.011  0.00  0.00    +0.005 C 
ATOM      5  C   UNL     1      47.464  80.448  39.961  0.00  0.00    +0.034 C 
ATOM      6  C   UNL     1      46.405  81.409  39.510  0.00  0.00    +0.036 C 
ATOM      7  C   UNL     1      45.718  80.998  38.240  0.00  0.00    +0.153 C 
ATOM      8  C   UNL     1      45.272  79.603  38.165  0.00  0.00    +0.038 C 
ATOM      9  C   UNL     1      46.264  78.623  38.741  0.00  0.00    +0.004 C 
ATOM     10  C   UNL     1      45.911  77.187  38.779  0.00  0.00    +0.004 C 
ATOM     11  C   UNL     1      44.511  76.972  38.207  0.00  0.00    +0.022 C 
ATOM     12  C   UNL     1      43.690  77.970  39.022  0.00  0.00    -0.038 C 
ATOM     13  C   UNL     1      42.943  77.629  40.009  0.00  0.00    +0.034 C 
ATOM     14  C   UNL     1      42.172  78.610  40.786  0.00  0.00    +0.195 C 
ATOM     15  O   UNL     1      41.458  78.256  41.733  0.00  0.00    -0.287 OA
ATOM     16  C   UNL     1      42.343  79.981  40.327  0.00  0.00    +0.038 C 
ATOM     17  C   UNL     1      43.107  80.314  39.308  0.00  0.00    -0.020 C 
ATOM     18  C   UNL     1      43.838  79.364  38.543  0.00  0.00    +0.036 C 
ATOM     19  C   UNL     1      43.054  79.327  37.163  0.00  0.00    +0.009 C 
ATOM     20  O   UNL     1      44.769  81.890  37.839  0.00  0.00    -0.223 OA
ATOM     21  C   UNL     1      48.641  80.524  38.992  0.00  0.00    +0.003 C 
ATOM     22  O   UNL     1      47.223  79.564  43.288  0.00  0.00    -0.330 OA
ATOM     23  C   UNL     1      48.400  78.979  42.825  0.00  0.00    +0.235 C 
ATOM     24  O   UNL     1      48.873  79.746  41.806  0.00  0.00    -0.326 OA
ENDROOT
BRANCH  23  25
ATOM     25  C   UNL     1      49.347  78.621  43.924  0.00  0.00    +0.057 C 
ATOM     26  C   UNL     1      49.920  79.875  44.558  0.00  0.00    +0.005 C 
ATOM     27  C   UNL     1      51.052  80.425  43.761  0.00  0.00    +0.000 C 
ATOM     28  C   UNL     1      52.226  79.465  43.664  0.00  0.00    +0.000 C 
ATOM     29  C   UNL     1      51.783  78.118  44.220  0.00  0.00    +0.000 C 
ATOM     30  C   UNL     1      50.487  77.730  43.513  0.00  0.00    +0.005 C 
ENDBRANCH  23  25
BRANCH   1  31
ATOM     31  C   UNL     1      48.148  82.014  41.755  0.00  0.00    +0.221 C 
ATOM     32  O   UNL     1      49.365  82.305  41.875  0.00  0.00    -0.290 OA
BRANCH  31  33
ATOM     33  C   UNL     1      47.252  83.140  41.998  0.00  0.00    +0.275 C 
BRANCH  33  34
ATOM     34  O   UNL     1      47.728  84.409  41.712  0.00  0.00    -0.440 OA
BRANCH  34  35
ATOM     35  C   UNL     1      48.686  85.138  42.385  0.00  0.00    +0.317 C 
ATOM     36  O   UNL     1      48.824  84.799  43.617  0.00  0.00    -0.250 OA
BRANCH  35  38
ATOM     37  C   UNL     1      48.735  87.350  41.219  0.00  0.00    +0.012 C 
ATOM     38  C   UNL     1      49.519  86.217  41.815  0.00  0.00    +0.099 C 
ATOM     39  C   UNL     1      50.390  86.792  42.926  0.00  0.00    +0.012 C 
ENDBRANCH  35  38
ENDBRANCH  34  35
ENDBRANCH  33  34
ENDBRANCH  31  33
ENDBRANCH   1  31
TORSDOF 6
