REMARK  Name = Cidofovir
REMARK  6 active torsions:
REMARK  status: ('A' for Active; 'I' for Inactive)
REMARK    1  A    between atoms: N_3  and  C_9
REMARK    2  A    between atoms: C_9  and  C_10
REMARK    3  A    between atoms: C_10  and  C_11
REMARK    4  A    between atoms: C_10  and  O_13
REMARK    5  A    between atoms: O_13  and  C_14
REMARK    6  A    between atoms: C_14  and  P_15
REMARK                            x       y       z     vdW  Elec       q    Type
REMARK                         _______ _______ _______ _____ _____    ______ ____
ROOT
ATOM      1  C   UNL     1      47.431  82.082  40.127  0.00  0.00    +0.143 C 
ENDROOT
BRANCH   1   4
ATOM      2  C   UNL     1      45.180  79.152  40.203  0.00  0.00    +0.057 A 
ATOM      3  C   UNL     1      46.233  80.015  40.485  0.00  0.00    +0.083 A 
ATOM      4  N   UNL     1      46.328  81.173  39.834  0.00  0.00    -0.276 N 
ATOM      5  C   UNL     1      45.435  81.555  38.896  0.00  0.00    +0.351 A 
ATOM      6  O   UNL     1      45.572  82.648  38.319  0.00  0.00    -0.244 OA
ATOM      7  N   UNL     1      44.415  80.710  38.628  0.00  0.00    -0.174 NA
ATOM      8  C   UNL     1      44.268  79.530  39.252  0.00  0.00    +0.176 A 
ATOM      9  N   UNL     1      43.162  78.673  38.924  0.00  0.00    -0.107 NA
ENDBRANCH   1   4
BRANCH   1  10
ATOM     10  C   UNL     1      47.746  82.038  41.604  0.00  0.00    +0.171 C 
BRANCH  10  11
ATOM     11  C   UNL     1      46.611  82.743  42.344  0.00  0.00    +0.213 C 
ATOM     12  O   UNL     1      45.977  81.869  43.203  0.00  0.00    -0.218 OA
ENDBRANCH  10  11
BRANCH  10  13
ATOM     13  O   UNL     1      48.973  82.549  41.918  0.00  0.00    -0.340 OA
BRANCH  13  14
ATOM     14  C   UNL     1      50.025  81.666  41.719  0.00  0.00    +0.262 C 
BRANCH  14  15
ATOM     15  P   UNL     1      51.587  82.481  42.108  0.00  0.00    +0.425 P 
ATOM     16  O   UNL     1      51.477  83.106  43.501  0.00  0.00    -0.251 OA
ATOM     17  O   UNL     1      52.879  81.386  42.146  0.00  0.00    -0.136 OA
ATOM     18  O   UNL     1      51.916  83.663  40.960  0.00  0.00    -0.136 OA
ENDBRANCH  14  15
ENDBRANCH  13  14
ENDBRANCH  10  13
ENDBRANCH   1  10
TORSDOF 6
