REMARK  Name = Cilazapril
REMARK  9 active torsions:
REMARK  status: ('A' for Active; 'I' for Inactive)
REMARK    1  A    between atoms: C_2  and  O_3
REMARK    2  A    between atoms: O_3  and  C_4
REMARK    3  A    between atoms: C_4  and  C_6
REMARK    4  A    between atoms: C_6  and  C_7
REMARK    5  A    between atoms: C_6  and  N_15
REMARK    6  A    between atoms: C_7  and  C_8
REMARK    7  A    between atoms: C_8  and  C_9
REMARK    8  A    between atoms: N_15  and  C_16
REMARK    9  A    between atoms: C_24  and  C_28
REMARK                            x       y       z     vdW  Elec       q    Type
REMARK                         _______ _______ _______ _____ _____    ______ ____
ROOT
ATOM      1  N   UNL     1      44.302  77.984  40.762  0.00  0.00    -0.201 NA
ENDROOT
BRANCH   1   2
ATOM      2  C   UNL     1      45.458  78.103  39.977  0.00  0.00    +0.151 C 
ATOM      3  C   UNL     1      46.719  77.567  40.618  0.00  0.00    +0.028 C 
ATOM      4  C   UNL     1      47.958  78.306  40.180  0.00  0.00    +0.021 C 
ATOM      5  C   UNL     1      48.428  79.351  41.164  0.00  0.00    +0.092 C 
ATOM      6  N   UNL     1      47.356  80.211  41.455  0.00  0.00    -0.202 NA
ATOM      7  C   UNL     1      47.459  81.137  42.504  0.00  0.00    +0.092 C 
ATOM      8  C   UNL     1      47.434  82.570  42.113  0.00  0.00    +0.021 C 
ATOM      9  C   UNL     1      47.166  82.866  40.684  0.00  0.00    +0.034 C 
ATOM     10  C   UNL     1      46.363  81.857  39.927  0.00  0.00    +0.195 C 
ATOM     11  N   UNL     1      46.501  80.519  40.433  0.00  0.00    -0.211 N 
ATOM     12  C   UNL     1      45.658  79.595  39.766  0.00  0.00    +0.255 C 
ATOM     13  O   UNL     1      44.931  80.041  38.830  0.00  0.00    -0.272 OA
BRANCH  10  14
ATOM     14  C   UNL     1      46.704  81.999  38.493  0.00  0.00    +0.384 C 
ATOM     15  O   UNL     1      45.820  82.182  37.627  0.00  0.00    -0.244 OA
ATOM     16  O   UNL     1      48.018  81.930  38.092  0.00  0.00    -0.244 OA
ENDBRANCH  10  14
ENDBRANCH   1   2
BRANCH   1  17
ATOM     17  C   UNL     1      43.558  76.779  40.802  0.00  0.00    +0.172 C 
BRANCH  17  18
ATOM     18  C   UNL     1      43.636  76.045  42.071  0.00  0.00    +0.333 C 
ATOM     19  O   UNL     1      43.880  76.703  43.119  0.00  0.00    -0.249 OA
BRANCH  18  20
ATOM     20  O   UNL     1      43.467  74.704  42.231  0.00  0.00    -0.448 OA
BRANCH  20  22
ATOM     21  C   UNL     1      42.363  73.112  43.577  0.00  0.00    +0.051 C 
ATOM     22  C   UNL     1      43.555  74.027  43.476  0.00  0.00    +0.209 C 
ENDBRANCH  20  22
ENDBRANCH  18  20
ENDBRANCH  17  18
BRANCH  17  23
ATOM     23  C   UNL     1      42.190  76.839  40.195  0.00  0.00    +0.033 C 
BRANCH  23  24
ATOM     24  C   UNL     1      42.235  77.344  38.776  0.00  0.00    +0.028 C 
BRANCH  24  25
ATOM     25  C   UNL     1      40.905  77.293  38.099  0.00  0.00    -0.022 A 
ATOM     26  C   UNL     1      40.156  76.126  38.202  0.00  0.00    -0.004 A 
ATOM     27  C   UNL     1      38.933  75.994  37.603  0.00  0.00    -0.000 A 
ATOM     28  C   UNL     1      38.419  77.043  36.872  0.00  0.00    -0.000 A 
ATOM     29  C   UNL     1      39.117  78.222  36.736  0.00  0.00    -0.000 A 
ATOM     30  C   UNL     1      40.354  78.302  37.365  0.00  0.00    -0.004 A 
ENDBRANCH  24  25
ENDBRANCH  23  24
ENDBRANCH  17  23
ENDBRANCH   1  17
TORSDOF 9
