REMARK  Name = Cilastatin
REMARK  11 active torsions:
REMARK  status: ('A' for Active; 'I' for Inactive)
REMARK    1  A    between atoms: C_4  and  C_5
REMARK    2  A    between atoms: N_7  and  C_8
REMARK    3  A    between atoms: C_8  and  C_21
REMARK    4  A    between atoms: C_9  and  C_10
REMARK    5  A    between atoms: C_10  and  C_11
REMARK    6  A    between atoms: C_11  and  C_12
REMARK    7  A    between atoms: C_12  and  C_13
REMARK    8  A    between atoms: C_13  and  S_14
REMARK    9  A    between atoms: S_14  and  C_15
REMARK   10  A    between atoms: C_15  and  C_16
REMARK   11  A    between atoms: C_16  and  C_17
REMARK                            x       y       z     vdW  Elec       q    Type
REMARK                         _______ _______ _______ _____ _____    ______ ____
ROOT
ATOM      1  C   UNK A   1      44.785  80.720  38.996  0.00  0.00    +0.149 C 
ATOM      2  C   UNK A   1      45.767  80.547  39.853  0.00  0.00    -0.003 C 
ENDROOT
BRANCH   1   5
ATOM      3  C   UNK A   0      43.555  78.719  39.827  0.00  0.00    +0.245 C 
ATOM      4  O   UNK A   0      44.552  78.534  40.605  0.00  0.00    -0.273 OA
ATOM      5  N   UNK A   1      43.680  79.824  38.959  0.00  0.00    -0.173 NA
BRANCH   3   9
ATOM      6  C   UNK A   0      42.299  77.203  37.366  0.00  0.00    +0.000 C 
ATOM      7  C   UNK A   0      41.839  77.055  38.783  0.00  0.00    +0.009 C 
ATOM      8  C   UNK A   0      42.776  76.311  39.759  0.00  0.00    +0.010 C 
ATOM      9  C   UNK A   0      42.421  77.786  39.917  0.00  0.00    +0.079 C 
ATOM     10  C   UNK A   0      40.355  76.669  38.967  0.00  0.00    +0.000 C 
ENDBRANCH   3   9
ENDBRANCH   1   5
BRANCH   1  11
ATOM     11  C   UNK A   1      44.817  81.827  38.078  0.00  0.00    +0.402 C 
ATOM     12  O   UNK A   1      43.852  82.039  37.319  0.00  0.00    -0.239 OA
ATOM     13  O   UNK A   1      45.910  82.662  38.028  0.00  0.00    -0.239 OA
ENDBRANCH   1  11
BRANCH   2  14
ATOM     14  C   UNK A   1      47.027  81.276  39.917  0.00  0.00    +0.028 C 
BRANCH  14  15
ATOM     15  C   UNK A   1      47.816  81.218  41.157  0.00  0.00    +0.006 C 
BRANCH  15  16
ATOM     16  C   UNK A   1      47.124  81.224  42.461  0.00  0.00    +0.012 C 
BRANCH  16  17
ATOM     17  C   UNK A   1      47.971  81.246  43.680  0.00  0.00    +0.058 C 
BRANCH  17  18
ATOM     18  S   UNK A   1      49.705  81.628  43.333  0.00  0.00    -0.138 S 
BRANCH  18  19
ATOM     19  C   UNK A   1      49.895  83.319  42.705  0.00  0.00    +0.088 C 
BRANCH  19  20
ATOM     20  C   UNK A   1      51.325  83.772  42.822  0.00  0.00    +0.205 C 
ATOM     21  N   UNK A   1      52.220  82.954  42.021  0.00  0.00    -0.120 NA
BRANCH  20  22
ATOM     22  C   UNK A   1      51.771  83.756  44.229  0.00  0.00    +0.383 C 
ATOM     23  O   UNK A   1      51.206  84.400  45.137  0.00  0.00    -0.244 OA
ATOM     24  O   UNK A   1      52.880  82.977  44.540  0.00  0.00    -0.244 OA
ENDBRANCH  20  22
ENDBRANCH  19  20
ENDBRANCH  18  19
ENDBRANCH  17  18
ENDBRANCH  16  17
ENDBRANCH  15  16
ENDBRANCH  14  15
ENDBRANCH   2  14
TORSDOF 11
