REMARK  Name = Cilostazol
REMARK  7 active torsions:
REMARK  status: ('A' for Active; 'I' for Inactive)
REMARK    1  A    between atoms: C_4  and  N_7
REMARK    2  A    between atoms: C_8  and  C_12
REMARK    3  A    between atoms: C_12  and  C_13
REMARK    4  A    between atoms: C_13  and  C_14
REMARK    5  A    between atoms: C_14  and  C_15
REMARK    6  A    between atoms: C_15  and  O_16
REMARK    7  A    between atoms: O_16  and  C_17
REMARK                            x       y       z     vdW  Elec       q    Type
REMARK                         _______ _______ _______ _____ _____    ______ ____
ROOT
ATOM      1  C   UNL     1      47.366  80.226  41.761  0.00  0.00    +0.048 C 
ENDROOT
BRANCH   1   2
ATOM      2  C   UNL     1      48.707  79.832  41.237  0.00  0.00    +0.012 C 
BRANCH   2   3
ATOM      3  C   UNL     1      49.453  80.976  40.611  0.00  0.00    +0.068 C 
BRANCH   3   5
ATOM      4  N   UNL     1      50.264  82.689  42.254  0.00  0.00    -0.219 N 
ATOM      5  C   UNL     1      50.449  81.584  41.513  0.00  0.00    +0.161 A 
ATOM      6  N   UNL     1      51.707  81.186  41.781  0.00  0.00    -0.113 NA
ATOM      7  N   UNL     1      52.288  81.998  42.648  0.00  0.00    -0.023 NA
ATOM      8  N   UNL     1      51.382  82.915  42.926  0.00  0.00    -0.043 NA
BRANCH   4  12
ATOM      9  C   UNL     1      47.960  85.341  44.247  0.00  0.00    +0.000 C 
ATOM     10  C   UNL     1      47.273  83.986  44.028  0.00  0.00    +0.002 C 
ATOM     11  C   UNL     1      48.309  83.054  43.529  0.00  0.00    +0.024 C 
ATOM     12  C   UNL     1      49.029  83.487  42.295  0.00  0.00    +0.108 C 
ATOM     13  C   UNL     1      49.309  84.949  42.215  0.00  0.00    +0.024 C 
ATOM     14  C   UNL     1      48.297  85.825  42.865  0.00  0.00    +0.002 C 
ENDBRANCH   4  12
ENDBRANCH   3   5
ENDBRANCH   2   3
ENDBRANCH   1   2
BRANCH   1  15
ATOM     15  C   UNL     1      46.215  79.682  40.976  0.00  0.00    +0.205 C 
BRANCH  15  16
ATOM     16  O   UNL     1      45.575  78.598  41.639  0.00  0.00    -0.475 OA
BRANCH  16  17
ATOM     17  C   UNL     1      44.494  77.989  41.033  0.00  0.00    +0.138 A 
ATOM     18  C   UNL     1      43.868  78.558  39.949  0.00  0.00    +0.034 A 
ATOM     19  C   UNL     1      42.785  77.975  39.321  0.00  0.00    -0.003 A 
ATOM     20  C   UNL     1      42.310  76.774  39.795  0.00  0.00    +0.070 A 
ATOM     21  C   UNL     1      42.912  76.168  40.884  0.00  0.00    +0.019 A 
ATOM     22  C   UNL     1      44.005  76.788  41.493  0.00  0.00    +0.038 A 
ATOM     23  N   UNL     1      41.193  76.132  39.177  0.00  0.00    -0.180 NA
ATOM     24  C   UNL     1      40.599  76.779  38.062  0.00  0.00    +0.246 C 
ATOM     25  O   UNL     1      39.424  76.455  37.755  0.00  0.00    -0.273 OA
ATOM     26  C   UNL     1      41.342  77.805  37.284  0.00  0.00    +0.092 C 
ATOM     27  C   UNL     1      42.186  78.675  38.163  0.00  0.00    +0.037 C 
ENDBRANCH  16  17
ENDBRANCH  15  16
ENDBRANCH   1  15
TORSDOF 7
