REMARK  Name = Cimetropium_bromide
REMARK  7 active torsions:
REMARK  status: ('A' for Active; 'I' for Inactive)
REMARK    1  A    between atoms: N_2  and  C_23
REMARK    2  A    between atoms: C_5  and  O_11
REMARK    3  A    between atoms: O_11  and  C_12
REMARK    4  A    between atoms: C_12  and  C_14
REMARK    5  A    between atoms: C_14  and  C_15
REMARK    6  A    between atoms: C_14  and  C_17
REMARK    7  A    between atoms: C_23  and  C_24
REMARK                            x       y       z     vdW  Elec       q    Type
REMARK                         _______ _______ _______ _____ _____    ______ ____
ROOT
ATOM      1  C   UNL     1      42.716  76.883  38.607  0.00  0.00    -0.095 C 
ATOM      2  N   UNL     1      43.528  77.392  39.653  0.00  0.00    +0.395 N 
ATOM      3  C   UNL     1      44.855  77.620  39.082  0.00  0.00    -0.020 C 
ATOM      4  C   UNL     1      45.861  78.115  40.069  0.00  0.00    +0.026 C 
ATOM      5  C   UNL     1      45.415  79.294  40.879  0.00  0.00    +0.165 C 
ATOM      6  C   UNL     1      43.925  79.420  40.999  0.00  0.00    +0.026 C 
ATOM      7  C   UNL     1      43.150  78.765  39.918  0.00  0.00    -0.020 C 
ATOM      8  C   UNL     1      43.418  79.393  38.542  0.00  0.00    +0.122 C 
ATOM      9  C   UNL     1      44.605  78.627  37.992  0.00  0.00    +0.122 C 
ATOM     10  O   UNL     1      44.623  79.979  38.276  0.00  0.00    -0.358 OA
ENDROOT
BRANCH   5  11
ATOM     11  O   UNL     1      46.049  80.458  40.437  0.00  0.00    -0.452 OA
BRANCH  11  12
ATOM     12  C   UNL     1      46.945  81.215  41.136  0.00  0.00    +0.323 C 
ATOM     13  O   UNL     1      47.241  80.841  42.299  0.00  0.00    -0.250 OA
BRANCH  12  14
ATOM     14  C   UNL     1      47.576  82.447  40.586  0.00  0.00    +0.154 C 
BRANCH  14  15
ATOM     15  C   UNL     1      48.498  83.083  41.520  0.00  0.00    -0.009 A 
ATOM     16  C   UNL     1      49.762  83.410  41.071  0.00  0.00    -0.004 A 
ATOM     17  C   UNL     1      50.709  84.005  41.847  0.00  0.00    -0.000 A 
ATOM     18  C   UNL     1      50.409  84.307  43.159  0.00  0.00    -0.000 A 
ATOM     19  C   UNL     1      49.154  83.991  43.632  0.00  0.00    -0.000 A 
ATOM     20  C   UNL     1      48.206  83.387  42.826  0.00  0.00    -0.004 A 
ENDBRANCH  14  15
BRANCH  14  21
ATOM     21  C   UNL     1      46.420  83.423  40.327  0.00  0.00    +0.198 C 
ATOM     22  O   UNL     1      45.723  83.717  41.490  0.00  0.00    -0.219 OA
ENDBRANCH  14  21
ENDBRANCH  12  14
ENDBRANCH  11  12
ENDBRANCH   5  11
BRANCH   2  23
ATOM     23  C   UNL     1      43.723  76.566  40.779  0.00  0.00    -0.073 C 
BRANCH  23  24
ATOM     24  C   UNL     1      42.619  76.040  41.573  0.00  0.00    -0.020 C 
ATOM     25  C   UNL     1      41.611  76.842  42.295  0.00  0.00    -0.002 C 
ATOM     26  C   UNL     1      41.221  75.891  41.132  0.00  0.00    -0.002 C 
ENDBRANCH  23  24
ENDBRANCH   2  23
TORSDOF 7
REMARK  Name = Cimetropium_bromide
REMARK  7 active torsions:
REMARK  status: ('A' for Active; 'I' for Inactive)
REMARK    1  A    between atoms: N_2  and  C_23
REMARK    2  A    between atoms: C_5  and  O_11
REMARK    3  A    between atoms: O_11  and  C_12
REMARK    4  A    between atoms: C_12  and  C_14
REMARK    5  A    between atoms: C_14  and  C_15
REMARK    6  A    between atoms: C_14  and  C_17
REMARK    7  A    between atoms: C_23  and  C_24
REMARK                            x       y       z     vdW  Elec       q    Type
REMARK                         _______ _______ _______ _____ _____    ______ ____
ROOT
ATOM      1 BR   UNL     1      45.317  79.815  40.788  0.00  0.00    +0.000 Br
ENDROOT
TORSDOF 0
