REMARK  Name = Cinalukast
REMARK  9 active torsions:
REMARK  status: ('A' for Active; 'I' for Inactive)
REMARK    1  A    between atoms: C_2  and  C_3
REMARK    2  A    between atoms: C_3  and  C_4
REMARK    3  A    between atoms: C_3  and  C_6
REMARK    4  A    between atoms: C_3  and  C_27
REMARK    5  A    between atoms: C_6  and  C_7
REMARK    6  A    between atoms: N_9  and  C_10
REMARK    7  A    between atoms: C_14  and  C_16
REMARK    8  A    between atoms: C_17  and  C_18
REMARK    9  A    between atoms: C_20  and  C_23
REMARK                            x       y       z     vdW  Elec       q    Type
REMARK                         _______ _______ _______ _____ _____    ______ ____
ROOT
ATOM      1  C   UNL     1      43.984  78.287  39.605  0.00  0.00    +0.073 A 
ATOM      2  C   UNL     1      44.067  77.290  40.554  0.00  0.00    +0.017 A 
ATOM      3  C   UNL     1      44.898  77.424  41.644  0.00  0.00    +0.001 A 
ATOM      4  C   UNL     1      45.667  78.562  41.807  0.00  0.00    +0.000 A 
ATOM      5  C   UNL     1      45.612  79.582  40.881  0.00  0.00    +0.001 A 
ATOM      6  C   UNL     1      44.776  79.415  39.811  0.00  0.00    +0.017 A 
ENDROOT
BRANCH   1   9
ATOM      7  C   UNL     1      41.771  77.763  38.736  0.00  0.00    +0.246 C 
ATOM      8  O   UNL     1      41.503  77.209  39.831  0.00  0.00    -0.273 OA
ATOM      9  N   UNL     1      43.135  78.174  38.470  0.00  0.00    -0.179 NA
BRANCH   7  10
ATOM     10  C   UNL     1      40.766  78.023  37.687  0.00  0.00    +0.098 C 
BRANCH  10  11
ATOM     11  C   UNL     1      39.981  76.787  37.398  0.00  0.00    +0.102 C 
BRANCH  11  12
ATOM     12  C   UNL     1      39.113  76.401  38.560  0.00  0.00    +0.364 C 
ATOM     13  O   UNL     1      39.469  75.559  39.424  0.00  0.00    -0.246 OA
ATOM     14  O   UNL     1      37.853  76.984  38.716  0.00  0.00    -0.246 OA
ENDBRANCH  11  12
BRANCH  11  16
ATOM     15  C   UNL     1      39.980  74.357  36.791  0.00  0.00    +0.001 C 
ATOM     16  C   UNL     1      40.822  75.584  37.069  0.00  0.00    +0.011 C 
ENDBRANCH  11  16
BRANCH  11  17
ATOM     17  C   UNL     1      39.015  77.047  36.228  0.00  0.00    +0.011 C 
ATOM     18  C   UNL     1      38.266  78.317  36.550  0.00  0.00    +0.001 C 
ENDBRANCH  11  17
ENDBRANCH  10  11
ENDBRANCH   7  10
ENDBRANCH   1   9
BRANCH   5  19
ATOM     19  C   UNL     1      46.442  80.764  41.095  0.00  0.00    +0.002 C 
ATOM     20  C   UNL     1      46.789  81.173  42.289  0.00  0.00    +0.026 C 
BRANCH  20  21
ATOM     21  C   UNL     1      47.521  82.441  42.405  0.00  0.00    +0.110 A 
ATOM     22  N   UNL     1      48.742  82.745  41.999  0.00  0.00    -0.243 NA
ATOM     23  C   UNL     1      49.216  83.942  42.199  0.00  0.00    +0.066 A 
ATOM     24  C   UNL     1      48.398  84.844  42.836  0.00  0.00    +0.052 A 
ATOM     25  S   UNL     1      46.997  83.908  43.107  0.00  0.00    -0.066 S 
BRANCH  23  26
ATOM     26  C   UNL     1      50.616  84.321  41.743  0.00  0.00    +0.041 C 
ATOM     27  C   UNL     1      50.994  83.544  40.503  0.00  0.00    +0.006 C 
ATOM     28  C   UNL     1      52.311  83.218  41.188  0.00  0.00    +0.001 C 
ATOM     29  C   UNL     1      51.634  83.539  42.520  0.00  0.00    +0.006 C 
ENDBRANCH  23  26
ENDBRANCH  20  21
ENDBRANCH   5  19
TORSDOF 9
