REMARK  Name = Cinnarizine
REMARK  6 active torsions:
REMARK  status: ('A' for Active; 'I' for Inactive)
REMARK    1  A    between atoms: N_3  and  C_16
REMARK    2  A    between atoms: N_6  and  C_7
REMARK    3  A    between atoms: C_7  and  C_8
REMARK    4  A    between atoms: C_9  and  C_10
REMARK    5  A    between atoms: C_16  and  C_17
REMARK    6  A    between atoms: C_16  and  C_23
REMARK                            x       y       z     vdW  Elec       q    Type
REMARK                         _______ _______ _______ _____ _____    ______ ____
ROOT
ATOM      1  C   UNL     1      45.185  81.238  38.725  0.00  0.00    +0.090 C 
ATOM      2  C   UNL     1      44.203  80.080  38.815  0.00  0.00    +0.090 C 
ATOM      3  N   UNL     1      44.244  79.383  39.998  0.00  0.00    -0.264 NA
ATOM      4  C   UNL     1      45.489  79.309  40.697  0.00  0.00    +0.090 C 
ATOM      5  C   UNL     1      46.436  80.428  40.529  0.00  0.00    +0.090 C 
ATOM      6  N   UNL     1      46.487  80.887  39.186  0.00  0.00    -0.267 NA
ENDROOT
BRANCH   6   7
ATOM      7  C   UNL     1      47.340  82.053  39.069  0.00  0.00    +0.099 C 
BRANCH   7   8
ATOM      8  C   UNL     1      48.027  82.374  40.374  0.00  0.00    -0.009 C 
ATOM      9  C   UNL     1      48.190  83.618  40.729  0.00  0.00    -0.003 C 
BRANCH   9  10
ATOM     10  C   UNL     1      48.921  83.989  41.906  0.00  0.00    -0.000 A 
ATOM     11  C   UNL     1      50.214  83.603  42.099  0.00  0.00    -0.000 A 
ATOM     12  C   UNL     1      50.910  83.970  43.234  0.00  0.00    -0.000 A 
ATOM     13  C   UNL     1      50.293  84.736  44.187  0.00  0.00    -0.000 A 
ATOM     14  C   UNL     1      48.982  85.134  44.003  0.00  0.00    -0.000 A 
ATOM     15  C   UNL     1      48.300  84.760  42.864  0.00  0.00    -0.000 A 
ENDBRANCH   9  10
ENDBRANCH   7   8
ENDBRANCH   6   7
BRANCH   3  16
ATOM     16  C   UNL     1      43.329  78.413  40.402  0.00  0.00    +0.103 C 
BRANCH  16  17
ATOM     17  C   UNL     1      42.378  77.909  39.373  0.00  0.00    -0.004 A 
ATOM     18  C   UNL     1      42.202  78.567  38.177  0.00  0.00    -0.003 A 
ATOM     19  C   UNL     1      41.311  78.120  37.230  0.00  0.00    -0.000 A 
ATOM     20  C   UNL     1      40.568  76.977  37.482  0.00  0.00    -0.000 A 
ATOM     21  C   UNL     1      40.732  76.308  38.673  0.00  0.00    -0.000 A 
ATOM     22  C   UNL     1      41.632  76.778  39.605  0.00  0.00    -0.003 A 
ENDBRANCH  16  17
BRANCH  16  23
ATOM     23  C   UNL     1      43.847  77.307  41.223  0.00  0.00    -0.004 A 
ATOM     24  C   UNL     1      44.606  76.292  40.706  0.00  0.00    -0.003 A 
ATOM     25  C   UNL     1      45.083  75.260  41.520  0.00  0.00    -0.000 A 
ATOM     26  C   UNL     1      44.800  75.240  42.862  0.00  0.00    -0.000 A 
ATOM     27  C   UNL     1      44.035  76.268  43.362  0.00  0.00    -0.000 A 
ATOM     28  C   UNL     1      43.561  77.279  42.598  0.00  0.00    -0.003 A 
ENDBRANCH  16  23
ENDBRANCH   3  16
TORSDOF 6
