REMARK  Name = Cinoxacin
REMARK  2 active torsions:
REMARK  status: ('A' for Active; 'I' for Inactive)
REMARK    1  A    between atoms: C_2  and  N_3
REMARK    2  A    between atoms: C_12  and  C_14
REMARK                            x       y       z     vdW  Elec       q    Type
REMARK                         _______ _______ _______ _____ _____    ______ ____
ROOT
ATOM      1  N   UNL     1      45.683  79.348  40.774  0.00  0.00    -0.250 N 
ATOM      2  C   UNL     1      44.641  79.065  39.978  0.00  0.00    +0.084 A 
ATOM      3  C   UNL     1      43.805  77.974  40.141  0.00  0.00    +0.059 A 
ATOM      4  C   UNL     1      42.738  77.700  39.319  0.00  0.00    +0.178 A 
ATOM      5  C   UNL     1      42.481  78.556  38.272  0.00  0.00    +0.177 A 
ATOM      6  C   UNL     1      43.305  79.661  38.086  0.00  0.00    +0.045 A 
ATOM      7  C   UNL     1      44.374  79.932  38.913  0.00  0.00    +0.061 A 
ATOM      8  C   UNL     1      45.197  81.016  38.752  0.00  0.00    +0.223 A 
ATOM      9  O   UNL     1      44.975  81.811  37.797  0.00  0.00    -0.285 OA
ATOM     10  C   UNL     1      46.265  81.299  39.575  0.00  0.00    +0.219 A 
ATOM     11  N   UNL     1      46.464  80.426  40.576  0.00  0.00    -0.159 NA
ATOM     12  O   UNL     1      41.367  78.022  37.641  0.00  0.00    -0.435 OA
ATOM     13  C   UNL     1      40.918  76.849  38.268  0.00  0.00    +0.429 C 
ATOM     14  O   UNL     1      41.820  76.662  39.349  0.00  0.00    -0.435 OA
ENDROOT
BRANCH  10  15
ATOM     15  C   UNL     1      47.104  82.463  39.357  0.00  0.00    +0.410 C 
ATOM     16  O   UNL     1      47.918  82.788  40.247  0.00  0.00    -0.239 OA
ATOM     17  O   UNL     1      47.046  83.229  38.212  0.00  0.00    -0.239 OA
ENDBRANCH  10  15
BRANCH   1  19
ATOM     18  C   UNL     1      47.199  77.608  41.575  0.00  0.00    +0.028 C 
ATOM     19  C   UNL     1      45.988  78.460  41.868  0.00  0.00    +0.128 C 
ENDBRANCH   1  19
TORSDOF 2
