REMARK  Name = Cinolazepam
REMARK  4 active torsions:
REMARK  status: ('A' for Active; 'I' for Inactive)
REMARK    1  A    between atoms: C_5  and  C_7
REMARK    2  A    between atoms: N_12  and  C_20
REMARK    3  A    between atoms: C_20  and  C_21
REMARK    4  A    between atoms: C_21  and  C_22
REMARK                            x       y       z     vdW  Elec       q    Type
REMARK                         _______ _______ _______ _____ _____    ______ ____
ROOT
ATOM      1  C   UNL     1      47.406  81.663  40.964  0.00  0.00    +0.082 C 
ATOM      2  N   UNL     1      47.124  82.548  40.089  0.00  0.00    -0.233 NA
ATOM      3  C   UNL     1      46.123  82.806  39.135  0.00  0.00    +0.331 C 
ATOM      4  C   UNL     1      45.165  81.763  38.856  0.00  0.00    +0.284 C 
ATOM      5  O   UNL     1      44.455  81.999  37.815  0.00  0.00    -0.270 OA
ATOM      6  N   UNL     1      44.795  80.502  39.459  0.00  0.00    -0.254 N 
ATOM      7  C   UNL     1      45.471  79.972  40.601  0.00  0.00    +0.055 A 
ATOM      8  C   UNL     1      46.612  80.474  41.252  0.00  0.00    +0.032 A 
ATOM      9  C   UNL     1      47.077  79.781  42.334  0.00  0.00    +0.014 A 
ATOM     10  C   UNL     1      46.506  78.626  42.835  0.00  0.00    +0.058 A 
ATOM     11  C   UNL     1      45.372  78.172  42.150  0.00  0.00    +0.013 A 
ATOM     12  C   UNL     1      44.890  78.857  41.054  0.00  0.00    +0.016 A 
ATOM     13 CL   UNL     1      47.139  77.757  44.214  0.00  0.00    -0.082 Cl
ATOM     14  O   UNL     1      46.771  83.126  37.920  0.00  0.00    -0.186 OA
ENDROOT
BRANCH   1  19
ATOM     15  C   UNL     1      50.934  81.266  42.119  0.00  0.00    +0.000 A 
ATOM     16  C   UNL     1      51.004  82.167  43.159  0.00  0.00    +0.002 A 
ATOM     17  C   UNL     1      49.895  82.906  43.493  0.00  0.00    +0.030 A 
ATOM     18  C   UNL     1      48.709  82.737  42.774  0.00  0.00    +0.142 A 
ATOM     19  C   UNL     1      48.619  81.854  41.744  0.00  0.00    +0.045 A 
ATOM     20  C   UNL     1      49.767  81.121  41.435  0.00  0.00    +0.004 A 
ATOM     21  F   UNL     1      47.634  83.493  43.149  0.00  0.00    -0.204 F 
ENDBRANCH   1  19
BRANCH   6  22
ATOM     22  C   UNL     1      43.714  79.773  38.891  0.00  0.00    +0.114 C 
BRANCH  22  23
ATOM     23  C   UNL     1      44.131  78.642  37.963  0.00  0.00    +0.127 C 
BRANCH  23  24
ATOM     24  C   UNL     1      43.156  78.278  37.028  0.00  0.00    +0.075 C 
ATOM     25  N   UNL     1      42.288  77.966  36.192  0.00  0.00    -0.196 NA
ENDBRANCH  23  24
ENDBRANCH  22  23
ENDBRANCH   6  22
TORSDOF 4
