REMARK  Name = Ciprofibrate
REMARK  4 active torsions:
REMARK  status: ('A' for Active; 'I' for Inactive)
REMARK    1  A    between atoms: C_2  and  C_4
REMARK    2  A    between atoms: C_2  and  O_7
REMARK    3  A    between atoms: O_7  and  C_8
REMARK    4  A    between atoms: C_11  and  C_14
REMARK                            x       y       z     vdW  Elec       q    Type
REMARK                         _______ _______ _______ _____ _____    ______ ____
ROOT
ATOM      1  C   UNL     1      46.331  80.793  41.231  0.00  0.00    +0.139 A 
ATOM      2  C   UNL     1      46.672  82.049  40.748  0.00  0.00    +0.037 A 
ATOM      3  C   UNL     1      47.832  82.631  41.186  0.00  0.00    -0.001 A 
ATOM      4  C   UNL     1      48.682  82.015  42.093  0.00  0.00    -0.020 A 
ATOM      5  C   UNL     1      48.311  80.780  42.544  0.00  0.00    -0.001 A 
ATOM      6  C   UNL     1      47.135  80.143  42.127  0.00  0.00    +0.037 A 
ENDROOT
BRANCH   4   7
ATOM      7  C   UNL     1      49.906  82.705  42.519  0.00  0.00    +0.053 C 
ATOM      8  C   UNL     1      50.401  83.840  41.694  0.00  0.00    +0.038 C 
ATOM      9  C   UNL     1      49.851  84.125  43.048  0.00  0.00    +0.137 C 
ATOM     10 CL   UNL     1      48.294  84.916  43.265  0.00  0.00    -0.099 Cl
ATOM     11 CL   UNL     1      51.029  84.476  44.338  0.00  0.00    -0.099 Cl
ENDBRANCH   4   7
BRANCH   1  12
ATOM     12  O   UNL     1      45.177  80.224  40.791  0.00  0.00    -0.472 OA
BRANCH  12  14
ATOM     13  C   UNL     1      45.867  78.851  38.903  0.00  0.00    +0.055 C 
ATOM     14  C   UNL     1      44.856  79.794  39.507  0.00  0.00    +0.225 C 
ATOM     15  C   UNL     1      43.506  79.070  39.616  0.00  0.00    +0.055 C 
BRANCH  14  16
ATOM     16  C   UNL     1      44.674  80.982  38.610  0.00  0.00    +0.400 C 
ATOM     17  O   UNL     1      43.472  81.240  38.288  0.00  0.00    -0.242 OA
ATOM     18  O   UNL     1      45.695  81.765  38.146  0.00  0.00    -0.242 OA
ENDBRANCH  14  16
ENDBRANCH  12  14
ENDBRANCH   1  12
TORSDOF 4
