REMARK  Name = Ciprofloxacin+dexamethasone
REMARK  5 active torsions:
REMARK  status: ('A' for Active; 'I' for Inactive)
REMARK    1  A    between atoms: C_19  and  C_20
REMARK    2  A    between atoms: C_20  and  C_22
REMARK    3  A    between atoms: C_31  and  N_32
REMARK    4  A    between atoms: C_34  and  C_50
REMARK    5  A    between atoms: C_40  and  N_43
REMARK                            x       y       z     vdW  Elec       q    Type
REMARK                         _______ _______ _______ _____ _____    ______ ____
ROOT
ATOM      1  C   UNL     1      41.804  76.338  37.622  0.00  0.00    +0.003 C 
ATOM      2  C   UNL     1      41.740  77.521  38.556  0.00  0.00    +0.035 C 
ATOM      3  C   UNL     1      42.741  78.595  38.185  0.00  0.00    +0.003 C 
ATOM      4  C   UNL     1      43.722  78.523  39.297  0.00  0.00    +0.006 C 
ATOM      5  C   UNL     1      44.675  79.687  39.410  0.00  0.00    +0.034 C 
ATOM      6  C   UNL     1      45.689  79.480  38.348  0.00  0.00    +0.007 C 
ATOM      7  C   UNL     1      46.994  80.142  38.469  0.00  0.00    +0.023 C 
ATOM      8  C   UNL     1      47.491  80.005  39.867  0.00  0.00    -0.035 C 
ATOM      9  C   UNL     1      48.692  79.541  40.103  0.00  0.00    +0.034 C 
ATOM     10  C   UNL     1      49.164  79.413  41.453  0.00  0.00    +0.195 C 
ATOM     11  O   UNL     1      50.313  78.971  41.731  0.00  0.00    -0.287 OA
ATOM     12  C   UNL     1      48.294  79.804  42.551  0.00  0.00    +0.038 C 
ATOM     13  C   UNL     1      47.089  80.267  42.287  0.00  0.00    -0.017 C 
ATOM     14  C   UNL     1      46.540  80.422  40.928  0.00  0.00    +0.064 C 
ATOM     15  C   UNL     1      45.208  79.770  40.808  0.00  0.00    +0.168 C 
ATOM     16  C   UNL     1      45.150  78.405  41.471  0.00  0.00    +0.182 C 
ATOM     17  C   UNL     1      43.699  77.975  41.679  0.00  0.00    +0.038 C 
ATOM     18  C   UNL     1      42.857  78.275  40.477  0.00  0.00    +0.035 C 
ATOM     19  C   UNL     1      42.038  77.104  39.995  0.00  0.00    +0.180 C 
ATOM     20  O   UNL     1      40.864  77.121  40.756  0.00  0.00    -0.218 OA
ATOM     21  C   UNL     1      41.879  79.402  40.743  0.00  0.00    +0.003 C 
ATOM     22  O   UNL     1      45.726  78.403  42.730  0.00  0.00    -0.220 OA
ATOM     23  F   UNL     1      44.328  80.582  41.541  0.00  0.00    -0.237 F 
ATOM     24  C   UNL     1      46.347  81.936  40.734  0.00  0.00    +0.011 C 
ENDROOT
BRANCH  19  25
ATOM     25  C   UNL     1      42.659  75.799  40.094  0.00  0.00    +0.211 C 
ATOM     26  O   UNL     1      43.610  75.401  39.435  0.00  0.00    -0.291 OA
BRANCH  25  27
ATOM     27  C   UNL     1      42.141  74.799  41.068  0.00  0.00    +0.248 C 
ATOM     28  O   UNL     1      41.540  73.714  40.488  0.00  0.00    -0.212 OA
ENDBRANCH  25  27
ENDBRANCH  19  25
TORSDOF 2
REMARK  Name = Ciprofloxacin+dexamethasone
REMARK  5 active torsions:
REMARK  status: ('A' for Active; 'I' for Inactive)
REMARK    1  A    between atoms: C_19  and  C_20
REMARK    2  A    between atoms: C_20  and  C_22
REMARK    3  A    between atoms: C_31  and  N_32
REMARK    4  A    between atoms: C_34  and  C_50
REMARK    5  A    between atoms: C_40  and  N_43
REMARK                            x       y       z     vdW  Elec       q    Type
REMARK                         _______ _______ _______ _____ _____    ______ ____
ROOT
ATOM      1  N   UNL     1      46.304  79.517  40.908  0.00  0.00    -0.328 N 
ATOM      2  C   UNL     1      47.091  80.621  40.908  0.00  0.00    +0.086 A 
ATOM      3  C   UNL     1      46.818  81.734  40.131  0.00  0.00    +0.136 A 
ATOM      4  C   UNL     1      45.692  81.681  39.338  0.00  0.00    +0.205 A 
ATOM      5  O   UNL     1      45.395  82.657  38.614  0.00  0.00    -0.286 OA
ATOM      6  C   UNL     1      44.876  80.584  39.312  0.00  0.00    +0.057 A 
ATOM      7  C   UNL     1      43.742  80.496  38.531  0.00  0.00    +0.036 A 
ATOM      8  C   UNL     1      42.968  79.350  38.561  0.00  0.00    +0.154 A 
ATOM      9  C   UNL     1      43.279  78.266  39.350  0.00  0.00    +0.077 A 
ATOM     10  C   UNL     1      44.408  78.367  40.121  0.00  0.00    +0.034 A 
ATOM     11  C   UNL     1      45.218  79.507  40.120  0.00  0.00    +0.064 A 
ATOM     12  F   UNL     1      41.841  79.243  37.794  0.00  0.00    -0.203 F 
ENDROOT
BRANCH   9  13
ATOM     13  N   UNL     1      42.476  77.098  39.370  0.00  0.00    -0.303 N 
ATOM     14  C   UNL     1      41.465  76.897  40.393  0.00  0.00    +0.110 C 
ATOM     15  C   UNL     1      40.704  75.644  40.065  0.00  0.00    +0.110 C 
ATOM     16  N   UNL     1      41.677  74.546  40.102  0.00  0.00    -0.214 NA
ATOM     17  C   UNL     1      42.640  74.673  39.028  0.00  0.00    +0.110 C 
ATOM     18  C   UNL     1      42.606  76.043  38.389  0.00  0.00    +0.110 C 
ENDBRANCH   9  13
BRANCH   1  21
ATOM     19  C   UNL     1      47.226  77.219  40.912  0.00  0.00    +0.024 C 
ATOM     20  C   UNL     1      47.948  77.920  42.036  0.00  0.00    +0.024 C 
ATOM     21  C   UNL     1      46.585  78.362  41.712  0.00  0.00    +0.086 C 
ENDBRANCH   1  21
BRANCH   3  22
ATOM     22  C   UNL     1      47.689  82.889  40.167  0.00  0.00    +0.392 C 
ATOM     23  O   UNL     1      48.431  83.131  41.151  0.00  0.00    -0.240 OA
ATOM     24  O   UNL     1      47.717  83.759  39.097  0.00  0.00    -0.240 OA
ENDBRANCH   3  22
TORSDOF 3
