REMARK  Name = Cisapride
REMARK  9 active torsions:
REMARK  status: ('A' for Active; 'I' for Inactive)
REMARK    1  A    between atoms: O_2  and  C_3
REMARK    2  A    between atoms: N_5  and  C_22
REMARK    3  A    between atoms: C_8  and  N_9
REMARK    4  A    between atoms: C_10  and  C_12
REMARK    5  A    between atoms: C_17  and  O_18
REMARK    6  A    between atoms: C_22  and  C_23
REMARK    7  A    between atoms: C_23  and  C_24
REMARK    8  A    between atoms: C_24  and  O_25
REMARK    9  A    between atoms: O_25  and  C_26
REMARK                            x       y       z     vdW  Elec       q    Type
REMARK                         _______ _______ _______ _____ _____    ______ ____
ROOT
ATOM      1  C   UNL     1      45.667  81.123  39.033  0.00  0.00    +0.151 C 
ATOM      2  C   UNL     1      44.221  80.752  39.299  0.00  0.00    +0.104 C 
ATOM      3  N   UNL     1      44.076  79.317  39.170  0.00  0.00    -0.270 NA
ATOM      4  C   UNL     1      45.167  78.588  39.809  0.00  0.00    +0.074 C 
ATOM      5  C   UNL     1      45.802  79.489  40.874  0.00  0.00    +0.042 C 
ATOM      6  C   UNL     1      46.553  80.553  40.090  0.00  0.00    +0.125 C 
ENDROOT
BRANCH   6   7
ATOM      7  N   UNL     1      47.056  81.601  41.008  0.00  0.00    -0.201 NA
ATOM      8  C   UNL     1      48.225  81.377  41.739  0.00  0.00    +0.268 C 
ATOM      9  O   UNL     1      48.596  80.144  41.848  0.00  0.00    -0.268 OA
BRANCH   8  10
ATOM     10  C   UNL     1      49.043  82.391  42.372  0.00  0.00    +0.090 A 
ATOM     11  C   UNL     1      50.433  82.251  42.338  0.00  0.00    +0.020 A 
ATOM     12  C   UNL     1      51.292  83.165  42.909  0.00  0.00    +0.075 A 
ATOM     13  C   UNL     1      50.791  84.277  43.549  0.00  0.00    +0.103 A 
ATOM     14  C   UNL     1      49.443  84.448  43.604  0.00  0.00    +0.056 A 
ATOM     15  C   UNL     1      48.595  83.510  43.019  0.00  0.00    +0.144 A 
ATOM     16  N   UNL     1      51.683  85.216  44.136  0.00  0.00    -0.127 NA
ATOM     17 CL   UNL     1      53.028  82.956  42.847  0.00  0.00    -0.081 Cl
BRANCH  15  18
ATOM     18  O   UNL     1      47.248  83.768  43.124  0.00  0.00    -0.471 OA
ATOM     19  C   UNL     1      46.648  84.859  43.737  0.00  0.00    +0.252 C 
ENDBRANCH  15  18
ENDBRANCH   8  10
ENDBRANCH   6   7
BRANCH   1  21
ATOM     20  C   UNL     1      47.022  82.789  38.216  0.00  0.00    +0.174 C 
ATOM     21  O   UNL     1      45.868  82.489  38.943  0.00  0.00    -0.350 OA
ENDBRANCH   1  21
BRANCH   3  22
ATOM     22  C   UNL     1      42.850  78.817  39.727  0.00  0.00    +0.076 C 
BRANCH  22  23
ATOM     23  C   UNL     1      42.498  77.418  39.268  0.00  0.00    +0.065 C 
BRANCH  23  24
ATOM     24  C   UNL     1      41.027  77.291  39.011  0.00  0.00    +0.207 C 
BRANCH  24  25
ATOM     25  O   UNL     1      40.700  77.520  37.660  0.00  0.00    -0.475 OA
BRANCH  25  26
ATOM     26  C   UNL     1      39.995  76.582  36.930  0.00  0.00    +0.139 A 
ATOM     27  C   UNL     1      39.830  75.290  37.402  0.00  0.00    +0.039 A 
ATOM     28  C   UNL     1      39.126  74.351  36.674  0.00  0.00    +0.033 A 
ATOM     29  C   UNL     1      38.580  74.722  35.454  0.00  0.00    +0.140 A 
ATOM     30  C   UNL     1      38.750  76.005  34.996  0.00  0.00    +0.033 A 
ATOM     31  C   UNL     1      39.456  76.939  35.729  0.00  0.00    +0.039 A 
ATOM     32  F   UNL     1      37.875  73.813  34.709  0.00  0.00    -0.204 F 
ENDBRANCH  25  26
ENDBRANCH  24  25
ENDBRANCH  23  24
ENDBRANCH  22  23
ENDBRANCH   3  22
TORSDOF 9
