REMARK  Name = Cisatracurium
REMARK  26 active torsions:
REMARK  status: ('A' for Active; 'I' for Inactive)
REMARK    1  A    between atoms: N_2  and  C_27
REMARK    2  A    between atoms: C_7  and  O_25
REMARK    3  A    between atoms: C_8  and  O_23
REMARK    4  A    between atoms: C_11  and  C_12
REMARK    5  A    between atoms: C_12  and  C_13
REMARK    6  A    between atoms: C_15  and  O_21
REMARK    7  A    between atoms: C_16  and  O_19
REMARK    8  A    between atoms: C_27  and  C_28
REMARK    9  A    between atoms: C_28  and  C_29
REMARK   10  A    between atoms: C_29  and  O_31
REMARK   11  A    between atoms: O_31  and  C_32
REMARK   12  A    between atoms: C_32  and  C_33
REMARK   13  A    between atoms: C_33  and  C_34
REMARK   14  A    between atoms: C_34  and  C_35
REMARK   15  A    between atoms: C_35  and  C_36
REMARK   16  A    between atoms: C_36  and  O_37
REMARK   17  A    between atoms: O_37  and  C_38
REMARK   18  A    between atoms: C_38  and  C_40
REMARK   19  A    between atoms: C_40  and  C_41
REMARK   20  A    between atoms: C_41  and  N_42
REMARK   21  A    between atoms: C_47  and  O_65
REMARK   22  A    between atoms: C_48  and  O_63
REMARK   23  A    between atoms: C_51  and  C_52
REMARK   24  A    between atoms: C_52  and  C_53
REMARK   25  A    between atoms: C_55  and  O_61
REMARK   26  A    between atoms: C_56  and  O_59
REMARK                            x       y       z     vdW  Elec       q    Type
REMARK                         _______ _______ _______ _____ _____    ______ ____
ROOT
ATOM      1  C   UNL     1      53.541  75.332  44.033  0.00  0.00    +0.008 C 
ENDROOT
BRANCH   1   2
ATOM      2  C   UNL     1      54.686  74.832  44.812  0.00  0.00    +0.048 C 
BRANCH   2   3
ATOM      3  C   UNL     1      54.383  74.279  46.166  0.00  0.00    +0.208 C 
BRANCH   3   4
ATOM      4  O   UNL     1      53.971  72.945  46.082  0.00  0.00    -0.449 OA
BRANCH   4   5
ATOM      5  C   UNL     1      53.923  72.173  47.254  0.00  0.00    +0.315 C 
ATOM      6  O   UNL     1      52.964  72.303  48.037  0.00  0.00    -0.250 OA
BRANCH   5   7
ATOM      7  C   UNL     1      54.999  71.214  47.564  0.00  0.00    +0.087 C 
BRANCH   7   8
ATOM      8  C   UNL     1      54.626  70.063  48.378  0.00  0.00    -0.061 C 
BRANCH   8   9
ATOM      9  N   UNL     1      55.551  69.343  49.167  0.00  0.00    +0.393 N 
ATOM     10  C   UNL     1      56.761  69.969  49.552  0.00  0.00    -0.068 C 
ATOM     11  C   UNL     1      57.855  69.028  50.007  0.00  0.00    +0.004 C 
ATOM     12  C   UNL     1      57.382  67.697  50.402  0.00  0.00    -0.027 A 
ATOM     13  C   UNL     1      58.006  66.927  51.368  0.00  0.00    +0.035 A 
ATOM     14  C   UNL     1      57.569  65.673  51.735  0.00  0.00    +0.172 A 
ATOM     15  C   UNL     1      56.436  65.131  51.110  0.00  0.00    +0.172 A 
ATOM     16  C   UNL     1      55.828  65.906  50.156  0.00  0.00    +0.034 A 
ATOM     17  C   UNL     1      56.272  67.155  49.796  0.00  0.00    -0.042 A 
ATOM     18  C   UNL     1      55.614  67.975  48.731  0.00  0.00    -0.027 C 
ATOM     19  C   UNL     1      54.828  69.165  50.517  0.00  0.00    -0.095 C 
BRANCH  15  20
ATOM     20  O   UNL     1      55.983  63.860  51.472  0.00  0.00    -0.468 OA
ATOM     21  C   UNL     1      55.788  62.932  50.414  0.00  0.00    +0.253 C 
ENDBRANCH  15  20
BRANCH  14  22
ATOM     22  O   UNL     1      58.167  64.877  52.692  0.00  0.00    -0.468 OA
ATOM     23  C   UNL     1      59.605  64.907  52.805  0.00  0.00    +0.253 C 
ENDBRANCH  14  22
BRANCH  18  24
ATOM     24  C   UNL     1      56.201  67.689  47.394  0.00  0.00    +0.010 C 
BRANCH  24  25
ATOM     25  C   UNL     1      55.764  66.297  46.949  0.00  0.00    -0.021 A 
ATOM     26  C   UNL     1      54.446  65.956  47.062  0.00  0.00    +0.036 A 
ATOM     27  C   UNL     1      54.032  64.700  46.687  0.00  0.00    +0.172 A 
ATOM     28  C   UNL     1      54.955  63.782  46.195  0.00  0.00    +0.172 A 
ATOM     29  C   UNL     1      56.275  64.117  46.079  0.00  0.00    +0.040 A 
ATOM     30  C   UNL     1      56.675  65.398  46.465  0.00  0.00    -0.001 A 
BRANCH  28  31
ATOM     31  O   UNL     1      54.458  62.529  45.839  0.00  0.00    -0.468 OA
ATOM     32  C   UNL     1      55.120  61.746  44.852  0.00  0.00    +0.253 C 
ENDBRANCH  28  31
BRANCH  27  33
ATOM     33  O   UNL     1      52.698  64.345  46.798  0.00  0.00    -0.468 OA
ATOM     34  C   UNL     1      51.874  64.408  45.671  0.00  0.00    +0.253 C 
ENDBRANCH  27  33
ENDBRANCH  24  25
ENDBRANCH  18  24
ENDBRANCH   8   9
ENDBRANCH   7   8
ENDBRANCH   5   7
ENDBRANCH   4   5
ENDBRANCH   3   4
ENDBRANCH   2   3
ENDBRANCH   1   2
BRANCH   1  35
ATOM     35  C   UNL     1      53.423  76.750  43.753  0.00  0.00    +0.048 C 
BRANCH  35  36
ATOM     36  C   UNL     1      52.257  77.325  43.055  0.00  0.00    +0.208 C 
BRANCH  36  37
ATOM     37  O   UNL     1      51.877  78.556  43.038  0.00  0.00    -0.449 OA
BRANCH  37  38
ATOM     38  C   UNL     1      51.737  79.815  42.953  0.00  0.00    +0.315 C 
ATOM     39  O   UNL     1      52.736  80.432  42.382  0.00  0.00    -0.250 OA
BRANCH  38  40
ATOM     40  C   UNL     1      50.605  80.675  43.419  0.00  0.00    +0.087 C 
BRANCH  40  41
ATOM     41  C   UNL     1      49.492  80.870  42.500  0.00  0.00    -0.061 C 
BRANCH  41  43
ATOM     42  C   UNL     1      50.240  79.208  40.903  0.00  0.00    -0.095 C 
ATOM     43  N   UNL     1      49.517  80.416  41.173  0.00  0.00    +0.393 N 
ATOM     44  C   UNL     1      49.946  81.360  40.163  0.00  0.00    -0.068 C 
ATOM     45  C   UNL     1      49.202  82.639  40.155  0.00  0.00    +0.004 C 
ATOM     46  C   UNL     1      47.893  82.523  40.812  0.00  0.00    -0.027 A 
ATOM     47  C   UNL     1      47.235  83.705  41.065  0.00  0.00    +0.035 A 
ATOM     48  C   UNL     1      46.010  83.768  41.668  0.00  0.00    +0.172 A 
ATOM     49  C   UNL     1      45.438  82.578  42.025  0.00  0.00    +0.172 A 
ATOM     50  C   UNL     1      46.075  81.358  41.786  0.00  0.00    +0.034 A 
ATOM     51  C   UNL     1      47.306  81.291  41.179  0.00  0.00    -0.042 A 
ATOM     52  C   UNL     1      48.075  80.113  40.841  0.00  0.00    -0.027 C 
BRANCH  48  53
ATOM     53  O   UNL     1      45.322  84.954  41.935  0.00  0.00    -0.468 OA
ATOM     54  C   UNL     1      45.808  86.229  41.536  0.00  0.00    +0.253 C 
ENDBRANCH  48  53
BRANCH  49  55
ATOM     55  O   UNL     1      44.192  82.595  42.638  0.00  0.00    -0.468 OA
ATOM     56  C   UNL     1      43.234  81.640  42.225  0.00  0.00    +0.253 C 
ENDBRANCH  49  55
BRANCH  52  57
ATOM     57  C   UNL     1      47.748  78.767  41.278  0.00  0.00    +0.010 C 
BRANCH  57  58
ATOM     58  C   UNL     1      46.438  78.223  41.003  0.00  0.00    -0.021 A 
ATOM     59  C   UNL     1      45.588  78.882  40.109  0.00  0.00    +0.036 A 
ATOM     60  C   UNL     1      44.339  78.407  39.806  0.00  0.00    +0.172 A 
ATOM     61  C   UNL     1      43.862  77.228  40.392  0.00  0.00    +0.172 A 
ATOM     62  C   UNL     1      44.686  76.583  41.263  0.00  0.00    +0.040 A 
ATOM     63  C   UNL     1      45.924  77.068  41.552  0.00  0.00    -0.001 A 
BRANCH  60  64
ATOM     64  O   UNL     1      43.476  79.034  38.930  0.00  0.00    -0.468 OA
ATOM     65  C   UNL     1      43.637  78.864  37.541  0.00  0.00    +0.253 C 
ENDBRANCH  60  64
BRANCH  61  66
ATOM     66  O   UNL     1      42.596  76.756  40.079  0.00  0.00    -0.468 OA
ATOM     67  C   UNL     1      41.843  76.118  41.084  0.00  0.00    +0.253 C 
ENDBRANCH  61  66
ENDBRANCH  57  58
ENDBRANCH  52  57
ENDBRANCH  41  43
ENDBRANCH  40  41
ENDBRANCH  38  40
ENDBRANCH  37  38
ENDBRANCH  36  37
ENDBRANCH  35  36
ENDBRANCH   1  35
TORSDOF 26
