REMARK  Name = Citicoline
REMARK  10 active torsions:
REMARK  status: ('A' for Active; 'I' for Inactive)
REMARK    1  A    between atoms: N_2  and  C_5
REMARK    2  A    between atoms: C_5  and  C_6
REMARK    3  A    between atoms: C_6  and  O_7
REMARK    4  A    between atoms: O_7  and  P_8
REMARK    5  A    between atoms: P_8  and  O_11
REMARK    6  A    between atoms: O_11  and  P_12
REMARK    7  A    between atoms: P_12  and  O_15
REMARK    8  A    between atoms: O_15  and  C_16
REMARK    9  A    between atoms: C_16  and  C_17
REMARK   10  A    between atoms: C_20  and  N_22
REMARK                            x       y       z     vdW  Elec       q    Type
REMARK                         _______ _______ _______ _____ _____    ______ ____
ROOT
ATOM      1  C   UNL     1      45.018  76.010  41.992  0.00  0.00    +0.186 C 
ENDROOT
BRANCH   1   2
ATOM      2  C   UNL     1      44.698  76.672  40.668  0.00  0.00    +0.180 C 
ATOM      3  C   UNL     1      43.332  77.286  40.770  0.00  0.00    +0.216 C 
ATOM      4  C   UNL     1      43.646  78.770  40.652  0.00  0.00    +0.234 C 
ATOM      5  C   UNL     1      44.914  78.733  39.853  0.00  0.00    +0.242 C 
ATOM      6  O   UNL     1      45.608  77.683  40.448  0.00  0.00    -0.331 OA
ATOM      7  O   UNL     1      42.661  79.460  39.980  0.00  0.00    -0.216 OA
ATOM      8  O   UNL     1      42.589  76.960  39.622  0.00  0.00    -0.218 OA
BRANCH   5   9
ATOM      9  N   UNL     1      45.665  79.962  39.926  0.00  0.00    -0.254 N 
ATOM     10  C   UNL     1      46.721  80.144  40.703  0.00  0.00    +0.085 A 
ATOM     11  C   UNL     1      47.395  81.354  40.722  0.00  0.00    +0.057 A 
ATOM     12  C   UNL     1      46.931  82.372  39.901  0.00  0.00    +0.176 A 
ATOM     13  N   UNL     1      45.865  82.181  39.120  0.00  0.00    -0.174 NA
ATOM     14  C   UNL     1      45.256  80.982  39.149  0.00  0.00    +0.353 A 
ATOM     15  O   UNL     1      44.249  80.837  38.396  0.00  0.00    -0.244 OA
ATOM     16  N   UNL     1      47.595  83.629  39.891  0.00  0.00    -0.107 NA
ENDBRANCH   5   9
ENDBRANCH   1   2
BRANCH   1  17
ATOM     17  O   UNL     1      46.275  76.426  42.421  0.00  0.00    -0.269 OA
BRANCH  17  18
ATOM     18  P   UNL     1      46.609  75.809  43.947  0.00  0.00    +0.514 P 
ATOM     19  O   UNL     1      47.454  76.789  44.756  0.00  0.00    -0.224 OA
ATOM     20  O   UNL     1      45.200  75.524  44.834  0.00  0.00    -0.116 OA
BRANCH  18  21
ATOM     21  O   UNL     1      47.532  74.400  43.762  0.00  0.00    -0.183 OA
BRANCH  21  22
ATOM     22  P   UNL     1      48.984  74.819  42.993  0.00  0.00    +0.514 P 
ATOM     23  O   UNL     1      49.321  73.669  42.048  0.00  0.00    -0.224 OA
ATOM     24  O   UNL     1      48.697  76.242  42.115  0.00  0.00    -0.116 OA
BRANCH  22  25
ATOM     25  O   UNL     1      50.161  75.020  44.160  0.00  0.00    -0.274 OA
BRANCH  25  26
ATOM     26  C   UNL     1      51.209  74.111  44.038  0.00  0.00    +0.132 C 
BRANCH  26  27
ATOM     27  C   UNL     1      52.154  74.314  45.203  0.00  0.00    -0.040 C 
BRANCH  27  29
ATOM     28  C   UNL     1      54.115  73.672  46.338  0.00  0.00    -0.096 C 
ATOM     29  N   UNL     1      53.310  73.477  45.147  0.00  0.00    +0.387 N 
ATOM     30  C   UNL     1      54.160  73.767  44.008  0.00  0.00    -0.096 C 
ATOM     31  C   UNL     1      52.898  72.090  45.138  0.00  0.00    -0.096 C 
ENDBRANCH  27  29
ENDBRANCH  26  27
ENDBRANCH  25  26
ENDBRANCH  22  25
ENDBRANCH  21  22
ENDBRANCH  18  21
ENDBRANCH  17  18
ENDBRANCH   1  17
TORSDOF 10
