REMARK  Name = Cladribine
REMARK  2 active torsions:
REMARK  status: ('A' for Active; 'I' for Inactive)
REMARK    1  A    between atoms: C4*_3  and  C5*_17
REMARK    2  A    between atoms: C1*_5  and  N_6
REMARK                            x       y       z     vdW  Elec       q    Type
REMARK                         _______ _______ _______ _____ _____    ______ ____
ROOT
ATOM      1  N   UNL     1      44.921  79.751  39.497  0.00  0.00    -0.271 N 
ATOM      2  C   UNL     1      44.421  80.427  38.449  0.00  0.00    +0.182 A 
ATOM      3  N   UNL     1      45.048  81.616  38.380  0.00  0.00    -0.219 NA
ATOM      4  C   UNL     1      45.946  81.725  39.364  0.00  0.00    +0.152 A 
ATOM      5  C   UNL     1      46.848  82.687  39.773  0.00  0.00    +0.193 A 
ATOM      6  N   UNL     1      47.603  82.427  40.839  0.00  0.00    -0.197 NA
ATOM      7  C   UNL     1      47.513  81.258  41.526  0.00  0.00    +0.227 A 
ATOM      8  N   UNL     1      46.637  80.305  41.142  0.00  0.00    -0.198 NA
ATOM      9  C   UNL     1      45.856  80.522  40.074  0.00  0.00    +0.170 A 
ATOM     10 CL   UNL     1      48.574  81.062  42.909  0.00  0.00    -0.041 Cl
ATOM     11  N   UNL     1      46.941  83.912  39.050  0.00  0.00    -0.105 NA
ENDROOT
BRANCH   1  16
ATOM     12  C2* UNL     1      45.662  77.483  40.062  0.00  0.00    +0.089 C 
ATOM     13  C3* UNL     1      44.973  76.392  40.858  0.00  0.00    +0.186 C 
ATOM     14  C4* UNL     1      43.810  77.115  41.460  0.00  0.00    +0.180 C 
ATOM     15  O4* UNL     1      43.974  78.466  41.179  0.00  0.00    -0.332 OA
ATOM     16  C1* UNL     1      44.506  78.445  39.895  0.00  0.00    +0.210 C 
ATOM     17  O3* UNL     1      45.802  75.944  41.872  0.00  0.00    -0.220 OA
BRANCH  14  18
ATOM     18  C5* UNL     1      42.485  76.679  40.896  0.00  0.00    +0.214 C 
ATOM     19  O5* UNL     1      42.642  76.351  39.546  0.00  0.00    -0.218 OA
ENDBRANCH  14  18
ENDBRANCH   1  16
TORSDOF 2
