REMARK  Name = Clarithromycin
REMARK  8 active torsions:
REMARK  status: ('A' for Active; 'I' for Inactive)
REMARK    1  A    between atoms: C_2  and  C_3
REMARK    2  A    between atoms: C_11  and  O_46
REMARK    3  A    between atoms: C_12  and  O_33
REMARK    4  A    between atoms: C_14  and  O_20
REMARK    5  A    between atoms: O_20  and  C_21
REMARK    6  A    between atoms: C_23  and  O_30
REMARK    7  A    between atoms: O_33  and  C_34
REMARK    8  A    between atoms: C_36  and  N_41
REMARK                            x       y       z     vdW  Elec       q    Type
REMARK                         _______ _______ _______ _____ _____    ______ ____
ROOT
ATOM      1  C   UNL     1      48.627  73.312  41.378  0.00  0.00    +0.199 C 
ATOM      2  C   UNL     1      47.986  72.419  42.452  0.00  0.00    +0.191 C 
ATOM      3  C   UNL     1      46.740  71.765  41.971  0.00  0.00    +0.190 C 
ATOM      4  C   UNL     1      45.455  72.318  42.532  0.00  0.00    +0.091 C 
ATOM      5  C   UNL     1      45.082  73.550  41.800  0.00  0.00    +0.152 C 
ATOM      6  O   UNL     1      45.533  73.712  40.688  0.00  0.00    -0.296 OA
ATOM      7  C   UNL     1      44.189  74.606  42.338  0.00  0.00    +0.060 C 
ATOM      8  C   UNL     1      44.309  75.867  41.563  0.00  0.00    +0.037 C 
ATOM      9  C   UNL     1      44.913  77.045  42.352  0.00  0.00    +0.118 C 
ATOM     10  C   UNL     1      45.530  77.926  41.362  0.00  0.00    +0.145 C 
ATOM     11  C   UNL     1      46.815  78.604  41.596  0.00  0.00    +0.057 C 
ATOM     12  C   UNL     1      48.142  78.106  41.618  0.00  0.00    +0.131 C 
ATOM     13  C   UNL     1      48.691  76.939  40.916  0.00  0.00    +0.126 C 
ATOM     14  C   UNL     1      48.749  75.804  41.921  0.00  0.00    +0.319 C 
ATOM     15  O   UNL     1      49.265  76.186  43.009  0.00  0.00    -0.250 OA
ATOM     16  O   UNL     1      48.317  74.595  41.679  0.00  0.00    -0.450 OA
ATOM     17  C   UNL     1      48.074  76.416  39.691  0.00  0.00    +0.014 C 
ATOM     18  C   UNL     1      46.606  79.431  42.895  0.00  0.00    +0.005 C 
ATOM     19  C   UNL     1      45.799  76.451  43.420  0.00  0.00    +0.032 C 
ATOM     20  C   UNL     1      42.778  74.052  42.036  0.00  0.00    +0.008 C 
ATOM     21  C   UNL     1      45.398  72.424  44.009  0.00  0.00    +0.010 C 
ATOM     22  O   UNL     1      46.767  70.365  42.071  0.00  0.00    -0.220 OA
ATOM     23  C   UNL     1      48.988  71.384  42.971  0.00  0.00    +0.039 C 
ATOM     24  O   UNL     1      47.682  73.212  43.562  0.00  0.00    -0.219 OA
ENDROOT
BRANCH   1  26
ATOM     25  C   UNL     1      50.806  73.364  42.613  0.00  0.00    +0.004 C 
ATOM     26  C   UNL     1      50.104  72.957  41.307  0.00  0.00    +0.046 C 
ENDBRANCH   1  26
BRANCH   9  27
ATOM     27  O   UNL     1      43.912  77.641  43.099  0.00  0.00    -0.353 OA
ATOM     28  C   UNL     1      43.760  77.316  44.395  0.00  0.00    +0.174 C 
ENDBRANCH   9  27
BRANCH  12  29
ATOM     29  O   UNL     1      49.004  79.188  41.202  0.00  0.00    -0.332 OA
BRANCH  29  30
ATOM     30  C   UNL     1      48.616  80.415  41.633  0.00  0.00    +0.238 C 
ATOM     31  C   UNL     1      49.604  81.432  41.060  0.00  0.00    +0.091 C 
ATOM     32  C   UNL     1      50.020  82.451  42.101  0.00  0.00    +0.128 C 
ATOM     33  C   UNL     1      50.812  81.645  43.140  0.00  0.00    +0.204 C 
ATOM     34  C   UNL     1      49.883  80.539  43.595  0.00  0.00    +0.150 C 
ATOM     35  O   UNL     1      48.645  80.547  43.010  0.00  0.00    -0.330 OA
ATOM     36  C   UNL     1      50.563  79.224  43.290  0.00  0.00    +0.035 C 
ATOM     37  O   UNL     1      51.143  82.413  44.229  0.00  0.00    -0.218 OA
ATOM     38  C   UNL     1      48.847  83.154  42.674  0.00  0.00    +0.033 C 
BRANCH  32  39
ATOM     39  O   UNL     1      50.971  83.336  41.561  0.00  0.00    -0.353 OA
ATOM     40  C   UNL     1      50.844  83.522  40.207  0.00  0.00    +0.174 C 
ENDBRANCH  32  39
ENDBRANCH  29  30
ENDBRANCH  12  29
BRANCH  10  41
ATOM     41  O   UNL     1      45.380  77.542  40.028  0.00  0.00    -0.329 OA
BRANCH  41  42
ATOM     42  C   UNL     1      44.815  78.433  39.171  0.00  0.00    +0.268 C 
ATOM     43  C   UNL     1      43.373  78.072  38.928  0.00  0.00    +0.222 C 
ATOM     44  C   UNL     1      42.696  79.171  38.108  0.00  0.00    +0.096 C 
ATOM     45  C   UNL     1      42.807  80.452  38.916  0.00  0.00    +0.048 C 
ATOM     46  C   UNL     1      44.326  80.689  39.023  0.00  0.00    +0.119 C 
ATOM     47  O   UNL     1      44.798  79.683  39.826  0.00  0.00    -0.331 OA
ATOM     48  C   UNL     1      44.513  82.013  39.708  0.00  0.00    +0.032 C 
ATOM     49  O   UNL     1      43.273  76.862  38.291  0.00  0.00    -0.216 OA
BRANCH  44  50
ATOM     50  N   UNL     1      41.329  78.901  37.846  0.00  0.00    -0.269 NA
ATOM     51  C   UNL     1      40.674  77.992  38.731  0.00  0.00    +0.090 C 
ATOM     52  C   UNL     1      40.976  78.750  36.460  0.00  0.00    +0.090 C 
ENDBRANCH  44  50
ENDBRANCH  41  42
ENDBRANCH  10  41
TORSDOF 8
