REMARK  Name = Clascoterone
REMARK  5 active torsions:
REMARK  status: ('A' for Active; 'I' for Inactive)
REMARK    1  A    between atoms: C_2  and  C_3
REMARK    2  A    between atoms: C_3  and  O_5
REMARK    3  A    between atoms: O_5  and  C_6
REMARK    4  A    between atoms: C_6  and  C_26
REMARK    5  A    between atoms: C_26  and  C_28
REMARK                            x       y       z     vdW  Elec       q    Type
REMARK                         _______ _______ _______ _____ _____    ______ ____
ROOT
ATOM      1  C   UNL     1      49.649  82.114  42.308  0.00  0.00    +0.189 C 
ATOM      2  C   UNL     1      50.075  82.773  41.016  0.00  0.00    +0.047 C 
ATOM      3  C   UNL     1      48.840  82.780  40.102  0.00  0.00    +0.004 C 
ATOM      4  C   UNL     1      48.159  81.570  40.613  0.00  0.00    +0.004 C 
ATOM      5  C   UNL     1      48.174  81.772  42.086  0.00  0.00    +0.040 C 
ATOM      6  C   UNL     1      47.737  80.510  42.746  0.00  0.00    +0.004 C 
ATOM      7  C   UNL     1      46.366  80.138  42.221  0.00  0.00    +0.000 C 
ATOM      8  C   UNL     1      46.415  79.922  40.726  0.00  0.00    +0.003 C 
ATOM      9  C   UNL     1      46.859  81.214  40.020  0.00  0.00    +0.001 C 
ATOM     10  C   UNL     1      45.767  82.205  40.061  0.00  0.00    +0.004 C 
ATOM     11  C   UNL     1      44.696  81.717  39.073  0.00  0.00    +0.022 C 
ATOM     12  C   UNL     1      44.488  80.261  39.190  0.00  0.00    -0.042 C 
ATOM     13  C   UNL     1      43.606  79.720  38.364  0.00  0.00    +0.029 C 
ATOM     14  C   UNL     1      43.284  78.297  38.350  0.00  0.00    +0.173 C 
ATOM     15  O   UNL     1      42.222  77.818  37.920  0.00  0.00    -0.291 OA
ATOM     16  C   UNL     1      44.311  77.370  38.892  0.00  0.00    +0.069 C 
ATOM     17  C   UNL     1      45.544  78.101  39.357  0.00  0.00    +0.012 C 
ATOM     18  C   UNL     1      45.175  79.367  40.142  0.00  0.00    +0.016 C 
ATOM     19  C   UNL     1      44.210  78.933  41.236  0.00  0.00    +0.004 C 
ATOM     20  C   UNL     1      47.357  82.920  42.575  0.00  0.00    +0.004 C 
ENDROOT
BRANCH   1  21
ATOM     21  C   UNL     1      50.424  80.932  42.672  0.00  0.00    +0.220 C 
ATOM     22  O   UNL     1      50.251  80.499  43.832  0.00  0.00    -0.290 OA
BRANCH  21  23
ATOM     23  C   UNL     1      51.386  80.173  41.872  0.00  0.00    +0.249 C 
ATOM     24  O   UNL     1      52.340  79.471  42.552  0.00  0.00    -0.212 OA
ENDBRANCH  21  23
ENDBRANCH   1  21
BRANCH   1  25
ATOM     25  O   UNL     1      49.740  83.110  43.335  0.00  0.00    -0.449 OA
BRANCH  25  26
ATOM     26  C   UNL     1      50.900  83.854  43.482  0.00  0.00    +0.317 C 
ATOM     27  O   UNL     1      51.864  83.587  42.714  0.00  0.00    -0.250 OA
BRANCH  26  29
ATOM     28  C   UNL     1      51.290  86.234  43.768  0.00  0.00    +0.012 C 
ATOM     29  C   UNL     1      51.038  84.933  44.494  0.00  0.00    +0.110 C 
ENDBRANCH  26  29
ENDBRANCH  25  26
ENDBRANCH   1  25
TORSDOF 5
