REMARK  Name = Clavulanate
REMARK  2 active torsions:
REMARK  status: ('A' for Active; 'I' for Inactive)
REMARK    1  A    between atoms: C_6  and  C_12
REMARK    2  A    between atoms: C_8  and  C_9
REMARK                            x       y       z     vdW  Elec       q    Type
REMARK                         _______ _______ _______ _____ _____    ______ ____
ROOT
ATOM      1  C   UNL     1      48.540  81.230  42.095  0.00  0.00    +0.151 C 
ATOM      2  C   UNL     1      47.130  81.427  41.632  0.00  0.00    +0.256 C 
ATOM      3  N   UNL     1      47.686  81.426  40.277  0.00  0.00    -0.232 N 
ATOM      4  C   UNL     1      48.867  81.957  40.847  0.00  0.00    +0.234 C 
ATOM      5  O   UNL     1      49.773  82.702  40.467  0.00  0.00    -0.275 OA
ATOM      6  C   UNL     1      46.615  80.893  39.438  0.00  0.00    +0.239 C 
ATOM      7  C   UNL     1      45.752  80.132  40.365  0.00  0.00    +0.146 C 
ATOM      8  C   UNL     1      44.691  79.447  40.050  0.00  0.00    +0.044 C 
ATOM      9  O   UNL     1      46.294  80.291  41.639  0.00  0.00    -0.462 OA
ENDROOT
BRANCH   6  10
ATOM     10  C   UNL     1      45.941  82.016  38.785  0.00  0.00    +0.390 C 
ATOM     11  O   UNL     1      44.959  81.817  38.011  0.00  0.00    -0.243 OA
ATOM     12  O   UNL     1      46.357  83.301  38.995  0.00  0.00    -0.243 OA
ENDBRANCH   6  10
BRANCH   8  13
ATOM     13  C   UNL     1      44.520  78.022  40.496  0.00  0.00    +0.211 C 
ATOM     14  O   UNL     1      43.894  77.362  39.416  0.00  0.00    -0.215 OA
ENDBRANCH   8  13
TORSDOF 2
