REMARK  Name = Clemastine
REMARK  6 active torsions:
REMARK  status: ('A' for Active; 'I' for Inactive)
REMARK    1  A    between atoms: C_2  and  C_3
REMARK    2  A    between atoms: C_2  and  C_9
REMARK    3  A    between atoms: C_2  and  O_16
REMARK    4  A    between atoms: O_16  and  C_17
REMARK    5  A    between atoms: C_17  and  C_18
REMARK    6  A    between atoms: C_18  and  C_19
REMARK                            x       y       z     vdW  Elec       q    Type
REMARK                         _______ _______ _______ _____ _____    ______ ____
ROOT
ATOM      1  C   UNL     1      45.789  82.041  43.010  0.00  0.00    +0.039 C 
ATOM      2  C   UNL     1      46.977  81.550  42.210  0.00  0.00    +0.130 C 
ENDROOT
BRANCH   2   3
ATOM      3  C   UNL     1      48.221  82.287  42.607  0.00  0.00    +0.006 A 
ATOM      4  C   UNL     1      48.179  83.596  43.058  0.00  0.00    -0.001 A 
ATOM      5  C   UNL     1      49.332  84.264  43.416  0.00  0.00    +0.011 A 
ATOM      6  C   UNL     1      50.571  83.654  43.339  0.00  0.00    +0.058 A 
ATOM      7  C   UNL     1      50.629  82.349  42.892  0.00  0.00    +0.011 A 
ATOM      8  C   UNL     1      49.463  81.694  42.537  0.00  0.00    -0.001 A 
ATOM      9 CL   UNL     1      52.019  84.534  43.803  0.00  0.00    -0.082 Cl
ENDBRANCH   2   3
BRANCH   2  10
ATOM     10  C   UNL     1      46.742  81.914  40.775  0.00  0.00    +0.006 A 
ATOM     11  C   UNL     1      45.522  81.569  40.193  0.00  0.00    -0.002 A 
ATOM     12  C   UNL     1      45.315  81.900  38.894  0.00  0.00    -0.000 A 
ATOM     13  C   UNL     1      46.264  82.561  38.136  0.00  0.00    -0.000 A 
ATOM     14  C   UNL     1      47.477  82.902  38.723  0.00  0.00    -0.000 A 
ATOM     15  C   UNL     1      47.707  82.574  40.042  0.00  0.00    -0.002 A 
ENDBRANCH   2  10
BRANCH   2  16
ATOM     16  O   UNL     1      47.113  80.191  42.262  0.00  0.00    -0.350 OA
BRANCH  16  17
ATOM     17  C   UNL     1      46.781  79.530  41.097  0.00  0.00    +0.144 C 
BRANCH  17  18
ATOM     18  C   UNL     1      46.319  78.122  41.441  0.00  0.00    +0.048 C 
BRANCH  18  19
ATOM     19  C   UNL     1      44.950  77.953  40.866  0.00  0.00    +0.060 C 
ATOM     20  C   UNL     1      44.881  78.104  39.379  0.00  0.00    +0.017 C 
ATOM     21  C   UNL     1      43.458  77.621  39.108  0.00  0.00    +0.019 C 
ATOM     22  C   UNL     1      43.094  76.811  40.336  0.00  0.00    +0.072 C 
ATOM     23  N   UNL     1      44.353  76.672  41.089  0.00  0.00    -0.273 NA
ATOM     24  C   UNL     1      45.072  75.578  40.492  0.00  0.00    +0.090 C 
ENDBRANCH  18  19
ENDBRANCH  17  18
ENDBRANCH  16  17
ENDBRANCH   2  16
TORSDOF 6
