REMARK  Name = Clenbuterol
REMARK  4 active torsions:
REMARK  status: ('A' for Active; 'I' for Inactive)
REMARK    1  A    between atoms: C_2  and  N_5
REMARK    2  A    between atoms: N_5  and  C_6
REMARK    3  A    between atoms: C_6  and  C_7
REMARK    4  A    between atoms: C_7  and  C_8
REMARK                            x       y       z     vdW  Elec       q    Type
REMARK                         _______ _______ _______ _____ _____    ______ ____
ROOT
ATOM      1  C   UNL     1      48.345  81.457  42.237  0.00  0.00    +0.011 A 
ATOM      2  C   UNL     1      47.652  82.598  42.595  0.00  0.00    +0.011 A 
ATOM      3  C   UNL     1      48.325  83.773  42.784  0.00  0.00    +0.075 A 
ATOM      4  C   UNL     1      49.694  83.872  42.631  0.00  0.00    +0.110 A 
ATOM      5  C   UNL     1      50.396  82.742  42.275  0.00  0.00    +0.075 A 
ATOM      6  C   UNL     1      49.713  81.551  42.082  0.00  0.00    +0.011 A 
ATOM      7 CL   UNL     1      52.131  82.827  42.070  0.00  0.00    -0.081 Cl
ATOM      8  N   UNL     1      50.383  85.105  42.832  0.00  0.00    -0.126 NA
ATOM      9 CL   UNL     1      47.435  85.210  43.237  0.00  0.00    -0.081 Cl
ENDROOT
BRANCH   1  10
ATOM     10  C   UNL     1      47.619  80.178  42.029  0.00  0.00    +0.192 C 
ATOM     11  O   UNL     1      48.501  79.172  41.666  0.00  0.00    -0.217 OA
BRANCH  10  12
ATOM     12  C   UNL     1      46.557  80.424  40.978  0.00  0.00    +0.126 C 
BRANCH  12  13
ATOM     13  N   UNL     1      46.110  79.134  40.503  0.00  0.00    -0.218 NA
BRANCH  13  15
ATOM     14  C   UNL     1      43.810  79.735  40.779  0.00  0.00    +0.017 C 
ATOM     15  C   UNL     1      44.848  79.252  39.806  0.00  0.00    +0.060 C 
ATOM     16  C   UNL     1      44.998  80.263  38.687  0.00  0.00    +0.017 C 
ATOM     17  C   UNL     1      44.503  77.929  39.174  0.00  0.00    +0.017 C 
ENDBRANCH  13  15
ENDBRANCH  12  13
ENDBRANCH  10  12
ENDBRANCH   1  10
TORSDOF 4
