REMARK  Name = Clevidipine_butyrate
REMARK  10 active torsions:
REMARK  status: ('A' for Active; 'I' for Inactive)
REMARK    1  A    between atoms: C_2  and  C_3
REMARK    2  A    between atoms: C_3  and  C_4
REMARK    3  A    between atoms: C_4  and  O_6
REMARK    4  A    between atoms: O_6  and  C_7
REMARK    5  A    between atoms: C_7  and  O_8
REMARK    6  A    between atoms: O_8  and  C_9
REMARK    7  A    between atoms: C_9  and  C_11
REMARK    8  A    between atoms: C_15  and  C_25
REMARK    9  A    between atoms: C_16  and  C_17
REMARK   10  A    between atoms: C_25  and  O_27
REMARK                            x       y       z     vdW  Elec       q    Type
REMARK                         _______ _______ _______ _____ _____    ______ ____
ROOT
ATOM      1  C   UNL     1      46.208  80.758  39.787  0.00  0.00    +0.073 C 
ATOM      2  C   UNL     1      45.700  81.803  39.163  0.00  0.00    +0.051 C 
ATOM      3  N   UNL     1      44.551  81.665  38.343  0.00  0.00    -0.221 NA
ATOM      4  C   UNL     1      43.919  80.409  38.169  0.00  0.00    +0.051 C 
ATOM      5  C   UNL     1      44.433  79.385  38.788  0.00  0.00    +0.073 C 
ATOM      6  C   UNL     1      45.636  79.433  39.664  0.00  0.00    +0.082 C 
ATOM      7  C   UNL     1      42.700  80.295  37.294  0.00  0.00    +0.049 C 
ATOM      8  C   UNL     1      46.259  83.191  39.253  0.00  0.00    +0.049 C 
ENDROOT
BRANCH   6   9
ATOM      9  C   UNL     1      45.208  78.822  40.941  0.00  0.00    -0.002 A 
ATOM     10  C   UNL     1      45.637  77.567  41.265  0.00  0.00    +0.065 A 
ATOM     11  C   UNL     1      45.295  76.969  42.486  0.00  0.00    +0.068 A 
ATOM     12  C   UNL     1      44.509  77.650  43.387  0.00  0.00    +0.012 A 
ATOM     13  C   UNL     1      44.073  78.910  43.068  0.00  0.00    +0.001 A 
ATOM     14  C   UNL     1      44.423  79.461  41.876  0.00  0.00    -0.003 A 
ATOM     15 CL   UNL     1      45.829  75.365  42.933  0.00  0.00    -0.081 Cl
ATOM     16 CL   UNL     1      46.579  76.574  40.188  0.00  0.00    -0.082 Cl
ENDBRANCH   6   9
BRANCH   1  17
ATOM     17  C   UNL     1      47.395  81.048  40.603  0.00  0.00    +0.341 C 
ATOM     18  O   UNL     1      47.787  82.225  40.688  0.00  0.00    -0.245 OA
BRANCH  17  19
ATOM     19  O   UNL     1      48.114  80.102  41.288  0.00  0.00    -0.405 OA
BRANCH  19  20
ATOM     20  C   UNL     1      49.367  80.452  41.896  0.00  0.00    +0.433 C 
BRANCH  20  21
ATOM     21  O   UNL     1      49.166  81.314  42.989  0.00  0.00    -0.408 OA
BRANCH  21  22
ATOM     22  C   UNL     1      49.997  82.382  43.183  0.00  0.00    +0.320 C 
ATOM     23  O   UNL     1      50.909  82.671  42.400  0.00  0.00    -0.250 OA
BRANCH  22  24
ATOM     24  C   UNL     1      49.794  83.227  44.383  0.00  0.00    +0.110 C 
BRANCH  24  26
ATOM     25  C   UNL     1      48.856  85.362  43.602  0.00  0.00    +0.001 C 
ATOM     26  C   UNL     1      50.118  84.690  44.078  0.00  0.00    +0.012 C 
ENDBRANCH  24  26
ENDBRANCH  22  24
ENDBRANCH  21  22
ENDBRANCH  20  21
ENDBRANCH  19  20
ENDBRANCH  17  19
ENDBRANCH   1  17
BRANCH   5  27
ATOM     27  C   UNL     1      43.768  78.061  38.609  0.00  0.00    +0.339 C 
ATOM     28  O   UNL     1      44.483  77.043  38.713  0.00  0.00    -0.245 OA
BRANCH  27  29
ATOM     29  O   UNL     1      42.438  77.900  38.343  0.00  0.00    -0.442 OA
ATOM     30  C   UNL     1      41.908  76.964  37.438  0.00  0.00    +0.256 C 
ENDBRANCH  27  29
ENDBRANCH   5  27
TORSDOF 10
