REMARK  Name = Clidinium
REMARK  5 active torsions:
REMARK  status: ('A' for Active; 'I' for Inactive)
REMARK    1  A    between atoms: C_8  and  O_10
REMARK    2  A    between atoms: O_10  and  C_11
REMARK    3  A    between atoms: C_11  and  C_13
REMARK    4  A    between atoms: C_13  and  C_14
REMARK    5  A    between atoms: C_13  and  C_20
REMARK                            x       y       z     vdW  Elec       q    Type
REMARK                         _______ _______ _______ _____ _____    ______ ____
ROOT
ATOM      1  C   UNL     1      45.273  79.492  39.340  0.00  0.00    +0.252 C 
ATOM      2  O   UNL     1      46.148  78.810  38.498  0.00  0.00    -0.205 OA
ENDROOT
BRANCH   1   3
ATOM      3  C   UNL     1      45.289  78.764  40.633  0.00  0.00    +0.019 A 
ATOM      4  C   UNL     1      46.005  77.588  40.709  0.00  0.00    -0.001 A 
ATOM      5  C   UNL     1      46.068  76.847  41.890  0.00  0.00    -0.000 A 
ATOM      6  C   UNL     1      45.414  77.271  43.024  0.00  0.00    -0.000 A 
ATOM      7  C   UNL     1      44.697  78.444  42.956  0.00  0.00    -0.000 A 
ATOM      8  C   UNL     1      44.636  79.182  41.772  0.00  0.00    -0.001 A 
ENDBRANCH   1   3
BRANCH   1   9
ATOM      9  C   UNL     1      43.894  79.332  38.765  0.00  0.00    +0.019 A 
ATOM     10  C   UNL     1      43.718  79.395  37.398  0.00  0.00    -0.001 A 
ATOM     11  C   UNL     1      42.440  79.244  36.906  0.00  0.00    -0.000 A 
ATOM     12  C   UNL     1      41.342  79.034  37.714  0.00  0.00    -0.000 A 
ATOM     13  C   UNL     1      41.540  78.974  39.076  0.00  0.00    -0.000 A 
ATOM     14  C   UNL     1      42.806  79.123  39.578  0.00  0.00    -0.001 A 
ENDBRANCH   1   9
BRANCH   1  15
ATOM     15  C   UNL     1      45.561  80.917  39.443  0.00  0.00    +0.353 C 
ATOM     16  O   UNL     1      44.549  81.704  39.459  0.00  0.00    -0.247 OA
BRANCH  15  17
ATOM     17  O   UNL     1      46.754  81.551  39.526  0.00  0.00    -0.452 OA
BRANCH  17  25
ATOM     18  C   UNL     1      50.577  83.305  41.741  0.00  0.00    -0.096 C 
ATOM     19  N   UNL     1      49.233  82.788  41.830  0.00  0.00    +0.391 N 
ATOM     20  C   UNL     1      49.098  81.753  42.835  0.00  0.00    -0.073 C 
ATOM     21  C   UNL     1      47.758  81.070  42.651  0.00  0.00    -0.019 C 
ATOM     22  C   UNL     1      46.822  82.047  41.926  0.00  0.00    +0.034 C 
ATOM     23  C   UNL     1      47.018  83.358  42.715  0.00  0.00    -0.019 C 
ATOM     24  C   UNL     1      48.371  83.895  42.226  0.00  0.00    -0.073 C 
ATOM     25  C   UNL     1      47.285  82.294  40.550  0.00  0.00    +0.149 C 
ATOM     26  C   UNL     1      48.819  82.199  40.567  0.00  0.00    -0.029 C 
ENDBRANCH  17  25
ENDBRANCH  15  17
ENDBRANCH   1  15
TORSDOF 5
