REMARK  Name = Clindamycin
REMARK  7 active torsions:
REMARK  status: ('A' for Active; 'I' for Inactive)
REMARK    1  A    between atoms: C_2  and  C_3
REMARK    2  A    between atoms: C_3  and  C_4
REMARK    3  A    between atoms: C_6  and  C_10
REMARK    4  A    between atoms: N_12  and  C_13
REMARK    5  A    between atoms: C_13  and  C_14
REMARK    6  A    between atoms: C_13  and  C_25
REMARK    7  A    between atoms: C_18  and  S_20
REMARK                            x       y       z     vdW  Elec       q    Type
REMARK                         _______ _______ _______ _____ _____    ______ ____
ROOT
ATOM      1  C   UNL     1      48.332  82.693  42.297  0.00  0.00    +0.140 C 
ENDROOT
BRANCH   1   2
ATOM      2  C   UNL     1      49.727  82.493  42.801  0.00  0.00    +0.170 C 
ATOM      3  C   UNL     1      50.783  82.349  41.765  0.00  0.00    +0.213 C 
ATOM      4  C   UNL     1      52.118  82.234  42.488  0.00  0.00    +0.218 C 
ATOM      5  C   UNL     1      52.084  81.212  43.576  0.00  0.00    +0.222 C 
ATOM      6  C   UNL     1      50.872  81.370  44.453  0.00  0.00    +0.195 C 
ATOM      7  O   UNL     1      49.745  81.369  43.624  0.00  0.00    -0.341 OA
ATOM      8  O   UNL     1      52.166  79.902  43.095  0.00  0.00    -0.217 OA
ATOM      9  O   UNL     1      52.577  83.448  42.962  0.00  0.00    -0.217 OA
ATOM     10  O   UNL     1      50.896  83.482  40.953  0.00  0.00    -0.218 OA
BRANCH   6  11
ATOM     11  S   UNL     1      50.950  82.935  45.376  0.00  0.00    -0.108 S 
ATOM     12  C   UNL     1      50.632  82.619  47.127  0.00  0.00    +0.072 C 
ENDBRANCH   6  11
ENDBRANCH   1   2
BRANCH   1  15
ATOM     13  C   UNL     1      46.985  81.234  40.791  0.00  0.00    +0.256 C 
ATOM     14  O   UNL     1      47.103  82.149  39.903  0.00  0.00    -0.272 OA
ATOM     15  N   UNL     1      47.621  81.472  42.014  0.00  0.00    -0.202 NA
BRANCH  13  18
ATOM     16  C   UNL     1      44.182  78.979  40.123  0.00  0.00    +0.018 C 
ATOM     17  C   UNL     1      44.898  79.876  41.091  0.00  0.00    +0.027 C 
ATOM     18  C   UNL     1      46.205  80.084  40.391  0.00  0.00    +0.137 C 
ATOM     19  N   UNL     1      45.930  79.950  38.981  0.00  0.00    -0.265 NA
ATOM     20  C   UNL     1      45.126  78.712  39.005  0.00  0.00    +0.073 C 
ATOM     21  C   UNL     1      45.134  81.008  38.455  0.00  0.00    +0.090 C 
BRANCH  16  22
ATOM     22  C   UNL     1      43.469  77.846  40.721  0.00  0.00    +0.001 C 
BRANCH  22  24
ATOM     23  C   UNL     1      42.078  75.735  40.580  0.00  0.00    +0.000 C 
ATOM     24  C   UNL     1      42.775  76.864  39.891  0.00  0.00    +0.000 C 
ENDBRANCH  22  24
ENDBRANCH  16  22
ENDBRANCH  13  18
ENDBRANCH   1  15
BRANCH   1  25
ATOM     25  C   UNL     1      47.522  83.670  43.124  0.00  0.00    +0.102 C 
ATOM     26  C   UNL     1      48.113  85.069  42.999  0.00  0.00    +0.019 C 
ATOM     27 CL   UNL     1      45.801  83.684  42.672  0.00  0.00    -0.113 Cl
ENDBRANCH   1  25
TORSDOF 7
