REMARK  Name = Clobazam_-_Lundbeck
REMARK  1 active torsions:
REMARK  status: ('A' for Active; 'I' for Inactive)
REMARK    1  A    between atoms: N_8  and  C_16
REMARK                            x       y       z     vdW  Elec       q    Type
REMARK                         _______ _______ _______ _____ _____    ______ ____
ROOT
ATOM      1  C   UNL     1      46.994  83.560  39.319  0.00  0.00    +0.120 C 
ATOM      2  N   UNL     1      46.516  82.194  39.351  0.00  0.00    -0.255 N 
ATOM      3  C   UNL     1      45.572  81.765  38.381  0.00  0.00    +0.239 C 
ATOM      4  O   UNL     1      45.315  82.674  37.523  0.00  0.00    -0.274 OA
ATOM      5  C   UNL     1      44.840  80.519  38.160  0.00  0.00    +0.171 C 
ATOM      6  C   UNL     1      44.619  79.720  39.388  0.00  0.00    +0.242 C 
ATOM      7  O   UNL     1      43.477  79.164  39.526  0.00  0.00    -0.274 OA
ATOM      8  N   UNL     1      45.481  79.449  40.482  0.00  0.00    -0.236 N 
ATOM      9  C   UNL     1      46.628  80.183  40.909  0.00  0.00    +0.073 A 
ATOM     10  C   UNL     1      47.068  81.399  40.392  0.00  0.00    +0.068 A 
ATOM     11  C   UNL     1      48.203  81.925  40.962  0.00  0.00    +0.017 A 
ATOM     12  C   UNL     1      48.887  81.304  41.988  0.00  0.00    +0.013 A 
ATOM     13  C   UNL     1      48.438  80.102  42.487  0.00  0.00    +0.059 A 
ATOM     14  C   UNL     1      47.285  79.544  41.927  0.00  0.00    +0.028 A 
ATOM     15 CL   UNL     1      49.276  79.274  43.793  0.00  0.00    -0.082 Cl
ENDROOT
BRANCH   8  16
ATOM     16  C   UNL     1      45.134  78.296  41.226  0.00  0.00    +0.058 A 
ATOM     17  C   UNL     1      44.375  78.310  42.374  0.00  0.00    +0.015 A 
ATOM     18  C   UNL     1      44.066  77.148  43.061  0.00  0.00    +0.001 A 
ATOM     19  C   UNL     1      44.510  75.920  42.621  0.00  0.00    +0.000 A 
ATOM     20  C   UNL     1      45.271  75.896  41.472  0.00  0.00    +0.001 A 
ATOM     21  C   UNL     1      45.571  77.060  40.798  0.00  0.00    +0.015 A 
ENDBRANCH   8  16
TORSDOF 1
