REMARK  Name = Clobetasol
REMARK  2 active torsions:
REMARK  status: ('A' for Active; 'I' for Inactive)
REMARK    1  A    between atoms: C_19  and  C_20
REMARK    2  A    between atoms: C_20  and  C_22
REMARK                            x       y       z     vdW  Elec       q    Type
REMARK                         _______ _______ _______ _____ _____    ______ ____
ROOT
ATOM      1  C   UNL     1      48.900  80.963  43.987  0.00  0.00    +0.003 C 
ATOM      2  C   UNL     1      48.896  80.976  42.488  0.00  0.00    +0.035 C 
ATOM      3  C   UNL     1      48.310  79.719  41.892  0.00  0.00    +0.003 C 
ATOM      4  C   UNL     1      47.441  80.112  40.748  0.00  0.00    +0.006 C 
ATOM      5  C   UNL     1      46.053  79.653  40.738  0.00  0.00    +0.034 C 
ATOM      6  C   UNL     1      45.319  79.492  42.030  0.00  0.00    +0.007 C 
ATOM      7  C   UNL     1      44.024  78.717  41.852  0.00  0.00    +0.023 C 
ATOM      8  C   UNL     1      43.717  78.578  40.386  0.00  0.00    -0.035 C 
ATOM      9  C   UNL     1      43.334  77.430  39.904  0.00  0.00    +0.034 C 
ATOM     10  C   UNL     1      43.019  77.197  38.499  0.00  0.00    +0.195 C 
ATOM     11  O   UNL     1      42.653  76.079  38.064  0.00  0.00    -0.287 OA
ATOM     12  C   UNL     1      43.161  78.366  37.633  0.00  0.00    +0.038 C 
ATOM     13  C   UNL     1      43.544  79.505  38.147  0.00  0.00    -0.017 C 
ATOM     14  C   UNL     1      43.861  79.766  39.549  0.00  0.00    +0.064 C 
ATOM     15  C   UNL     1      45.238  80.386  39.680  0.00  0.00    +0.168 C 
ATOM     16  C   UNL     1      45.291  81.851  39.812  0.00  0.00    +0.182 C 
ATOM     17  C   UNL     1      46.687  82.355  39.835  0.00  0.00    +0.038 C 
ATOM     18  C   UNL     1      47.708  81.579  40.566  0.00  0.00    +0.035 C 
ATOM     19  C   UNL     1      48.124  82.132  41.896  0.00  0.00    +0.178 C 
ATOM     20  O   UNL     1      47.049  82.482  42.725  0.00  0.00    -0.218 OA
ATOM     21  C   UNL     1      48.981  81.654  39.695  0.00  0.00    +0.003 C 
ATOM     22  O   UNL     1      44.554  82.415  40.843  0.00  0.00    -0.220 OA
ATOM     23  F   UNL     1      45.888  80.062  38.489  0.00  0.00    -0.237 F 
ATOM     24  C   UNL     1      42.803  80.822  39.983  0.00  0.00    +0.011 C 
ENDROOT
BRANCH  19  25
ATOM     25  C   UNL     1      49.000  83.317  41.863  0.00  0.00    +0.194 C 
ATOM     26  O   UNL     1      50.102  83.249  41.381  0.00  0.00    -0.292 OA
BRANCH  25  27
ATOM     27  C   UNL     1      48.604  84.649  42.405  0.00  0.00    +0.161 C 
ATOM     28 CL   UNL     1      50.054  85.719  42.501  0.00  0.00    -0.105 Cl
ENDBRANCH  25  27
ENDBRANCH  19  25
TORSDOF 2
