REMARK  Name = Clocortolone
REMARK  2 active torsions:
REMARK  status: ('A' for Active; 'I' for Inactive)
REMARK    1  A    between atoms: C_19  and  C_20
REMARK    2  A    between atoms: C_20  and  C_22
REMARK                            x       y       z     vdW  Elec       q    Type
REMARK                         _______ _______ _______ _____ _____    ______ ____
ROOT
ATOM      1  C   UNL     1      47.727  84.871  43.315  0.00  0.00    +0.000 C 
ATOM      2  C   UNL     1      48.572  84.047  42.379  0.00  0.00    +0.007 C 
ATOM      3  C   UNL     1      47.751  83.636  41.176  0.00  0.00    +0.000 C 
ATOM      4  C   UNL     1      47.390  82.249  41.582  0.00  0.00    +0.002 C 
ATOM      5  C   UNL     1      46.566  81.428  40.735  0.00  0.00    +0.020 C 
ATOM      6  C   UNL     1      45.932  82.137  39.544  0.00  0.00    +0.041 C 
ATOM      7  C   UNL     1      44.680  81.381  39.177  0.00  0.00    +0.180 C 
ATOM      8  C   UNL     1      44.722  80.004  39.774  0.00  0.00    -0.005 C 
ATOM      9  C   UNL     1      43.626  79.501  40.334  0.00  0.00    +0.036 C 
ATOM     10  C   UNL     1      43.687  78.180  40.893  0.00  0.00    +0.195 C 
ATOM     11  O   UNL     1      42.640  77.709  41.424  0.00  0.00    -0.287 OA
ATOM     12  C   UNL     1      44.919  77.433  40.837  0.00  0.00    +0.038 C 
ATOM     13  C   UNL     1      45.988  77.940  40.289  0.00  0.00    -0.018 C 
ATOM     14  C   UNL     1      46.015  79.278  39.710  0.00  0.00    +0.052 C 
ATOM     15  C   UNL     1      47.186  80.112  40.264  0.00  0.00    +0.102 C 
ATOM     16  C   UNL     1      47.879  79.487  41.428  0.00  0.00    +0.166 C 
ATOM     17  C   UNL     1      48.434  80.364  42.488  0.00  0.00    +0.035 C 
ATOM     18  C   UNL     1      48.740  81.740  42.019  0.00  0.00    +0.009 C 
ATOM     19  C   UNL     1      48.985  82.751  43.113  0.00  0.00    +0.060 C 
ATOM     20  C   UNL     1      49.889  81.845  41.119  0.00  0.00    +0.001 C 
ATOM     21  O   UNL     1      47.064  78.575  42.149  0.00  0.00    -0.222 OA
ATOM     22 CL   UNL     1      48.246  80.362  38.849  0.00  0.00    -0.113 Cl
ATOM     23  C   UNL     1      46.180  79.019  38.200  0.00  0.00    +0.010 C 
ATOM     24  F   UNL     1      44.511  81.307  37.805  0.00  0.00    -0.233 F 
ENDROOT
BRANCH  19  25
ATOM     25  C   UNL     1      50.370  82.870  43.574  0.00  0.00    +0.183 C 
ATOM     26  O   UNL     1      51.067  83.801  43.222  0.00  0.00    -0.293 OA
BRANCH  25  27
ATOM     27  C   UNL     1      50.966  81.870  44.479  0.00  0.00    +0.246 C 
ATOM     28  O   UNL     1      52.352  81.719  44.227  0.00  0.00    -0.212 OA
ENDBRANCH  25  27
ENDBRANCH  19  25
TORSDOF 2
