REMARK  Name = Clodronate
REMARK  2 active torsions:
REMARK  status: ('A' for Active; 'I' for Inactive)
REMARK    1  A    between atoms: C_1  and  P_2
REMARK    2  A    between atoms: C_1  and  P_6
REMARK                            x       y       z     vdW  Elec       q    Type
REMARK                         _______ _______ _______ _____ _____    ______ ____
ROOT
ATOM      1  C   UNL     1      45.914  80.612  40.425  0.00  0.00    +0.326 C 
ATOM      2 CL   UNL     1      47.220  79.977  41.423  0.00  0.00    -0.075 Cl
ATOM      3 CL   UNL     1      44.743  81.477  41.458  0.00  0.00    -0.075 Cl
ENDROOT
BRANCH   1   4
ATOM      4  P   UNL     1      46.623  81.795  39.253  0.00  0.00    +0.434 P 
ATOM      5  O   UNL     1      47.318  82.920  40.005  0.00  0.00    -0.250 OA
ATOM      6  O   UNL     1      45.357  82.534  38.376  0.00  0.00    -0.136 OA
ATOM      7  O   UNL     1      47.740  81.081  38.222  0.00  0.00    -0.136 OA
ENDBRANCH   1   4
BRANCH   1   8
ATOM      8  P   UNL     1      45.123  79.223  39.573  0.00  0.00    +0.434 P 
ATOM      9  O   UNL     1      44.393  78.315  40.517  0.00  0.00    -0.250 OA
ATOM     10  O   UNL     1      44.000  79.880  38.485  0.00  0.00    -0.136 OA
ATOM     11  O   UNL     1      46.351  78.389  38.746  0.00  0.00    -0.136 OA
ENDBRANCH   1   8
TORSDOF 2
