REMARK  Name = Clofoctol
REMARK  5 active torsions:
REMARK  status: ('A' for Active; 'I' for Inactive)
REMARK    1  A    between atoms: C_2  and  C_5
REMARK    2  A    between atoms: C_5  and  C_6
REMARK    3  A    between atoms: C_6  and  C_9
REMARK    4  A    between atoms: C_11  and  C_16
REMARK    5  A    between atoms: C_16  and  C_17
REMARK                            x       y       z     vdW  Elec       q    Type
REMARK                         _______ _______ _______ _____ _____    ______ ____
ROOT
ATOM      1  C   UNL     1      44.974  79.182  40.111  0.00  0.00    -0.023 A 
ATOM      2  C   UNL     1      46.266  79.632  40.242  0.00  0.00    -0.005 A 
ATOM      3  C   UNL     1      46.718  80.862  39.720  0.00  0.00    +0.021 A 
ATOM      4  C   UNL     1      45.814  81.624  39.056  0.00  0.00    +0.192 A 
ATOM      5  C   UNL     1      44.497  81.166  38.923  0.00  0.00    +0.041 A 
ATOM      6  C   UNL     1      44.072  79.964  39.438  0.00  0.00    -0.001 A 
ATOM      7  O   UNL     1      46.148  82.856  38.491  0.00  0.00    -0.287 OA
ENDROOT
BRANCH   1   8
ATOM      8  C   UNL     1      44.631  77.888  40.763  0.00  0.00    +0.019 C 
ATOM      9  C   UNL     1      45.145  78.154  42.228  0.00  0.00    +0.004 C 
ATOM     10  C   UNL     1      45.479  76.822  40.213  0.00  0.00    +0.004 C 
BRANCH   8  11
ATOM     11  C   UNL     1      43.191  77.683  40.835  0.00  0.00    +0.004 C 
BRANCH  11  13
ATOM     12  C   UNL     1      41.074  76.485  40.068  0.00  0.00    +0.000 C 
ATOM     13  C   UNL     1      42.408  77.081  39.762  0.00  0.00    +0.000 C 
ATOM     14  C   UNL     1      43.273  75.885  39.271  0.00  0.00    +0.000 C 
ATOM     15  C   UNL     1      42.272  77.941  38.515  0.00  0.00    +0.000 C 
ENDBRANCH  11  13
ENDBRANCH   8  11
ENDBRANCH   1   8
BRANCH   3  16
ATOM     16  C   UNL     1      48.127  81.224  39.987  0.00  0.00    +0.057 C 
BRANCH  16  17
ATOM     17  C   UNL     1      48.338  82.213  41.041  0.00  0.00    -0.007 A 
ATOM     18  C   UNL     1      49.547  82.539  41.552  0.00  0.00    +0.055 A 
ATOM     19  C   UNL     1      49.608  83.583  42.498  0.00  0.00    +0.022 A 
ATOM     20  C   UNL     1      48.494  84.264  42.911  0.00  0.00    +0.058 A 
ATOM     21  C   UNL     1      47.271  83.910  42.376  0.00  0.00    +0.011 A 
ATOM     22  C   UNL     1      47.197  82.916  41.469  0.00  0.00    -0.002 A 
ATOM     23 CL   UNL     1      48.605  85.567  44.098  0.00  0.00    -0.082 Cl
ATOM     24 CL   UNL     1      51.050  81.684  41.203  0.00  0.00    -0.083 Cl
ENDBRANCH  16  17
ENDBRANCH   3  16
TORSDOF 5
