REMARK  Name = Clofazimine
REMARK  4 active torsions:
REMARK  status: ('A' for Active; 'I' for Inactive)
REMARK    1  A    between atoms: C_2  and  N_4
REMARK    2  A    between atoms: N_16  and  C_17
REMARK    3  A    between atoms: C_25  and  N_26
REMARK    4  A    between atoms: N_26  and  C_27
REMARK                            x       y       z     vdW  Elec       q    Type
REMARK                         _______ _______ _______ _____ _____    ______ ____
ROOT
ATOM      1  N   UNL     1      48.823  78.852  42.081  0.00  0.00    -0.271 NA
ATOM      2  C   UNL     1      47.795  79.132  41.396  0.00  0.00    +0.093 A 
ATOM      3  C   UNL     1      46.670  78.345  41.323  0.00  0.00    +0.039 A 
ATOM      4  C   UNL     1      45.555  78.634  40.590  0.00  0.00    +0.083 A 
ATOM      5  C   UNL     1      45.546  79.860  39.829  0.00  0.00    +0.099 A 
ATOM      6  N   UNL     1      44.483  80.185  39.100  0.00  0.00    -0.242 NA
ATOM      7  C   UNL     1      43.406  79.351  39.079  0.00  0.00    +0.097 A 
ATOM      8  C   UNL     1      42.283  79.649  38.336  0.00  0.00    +0.021 A 
ATOM      9  C   UNL     1      41.196  78.824  38.304  0.00  0.00    +0.002 A 
ATOM     10  C   UNL     1      41.216  77.657  39.034  0.00  0.00    +0.002 A 
ATOM     11  C   UNL     1      42.321  77.333  39.783  0.00  0.00    +0.019 A 
ATOM     12  C   UNL     1      43.406  78.168  39.808  0.00  0.00    +0.082 A 
ATOM     13  N   UNL     1      44.470  77.830  40.546  0.00  0.00    -0.303 N 
ATOM     14  C   UNL     1      46.691  80.665  39.902  0.00  0.00    +0.039 A 
ATOM     15  C   UNL     1      47.782  80.320  40.656  0.00  0.00    +0.089 A 
ENDROOT
BRANCH  13  16
ATOM     16  C   UNL     1      44.525  76.632  41.312  0.00  0.00    +0.064 A 
ATOM     17  C   UNL     1      44.820  75.459  40.651  0.00  0.00    +0.018 A 
ATOM     18  C   UNL     1      44.894  74.239  41.325  0.00  0.00    +0.013 A 
ATOM     19  C   UNL     1      44.669  74.203  42.678  0.00  0.00    +0.058 A 
ATOM     20  C   UNL     1      44.377  75.381  43.319  0.00  0.00    +0.013 A 
ATOM     21  C   UNL     1      44.298  76.602  42.673  0.00  0.00    +0.018 A 
ATOM     22 CL   UNL     1      44.767  72.667  43.502  0.00  0.00    -0.082 Cl
ENDBRANCH  13  16
BRANCH   1  24
ATOM     23  C   UNL     1      49.937  77.105  40.749  0.00  0.00    +0.026 C 
ATOM     24  C   UNL     1      49.554  77.636  42.106  0.00  0.00    +0.103 C 
ATOM     25  C   UNL     1      50.828  77.838  42.900  0.00  0.00    +0.026 C 
ENDBRANCH   1  24
BRANCH  15  26
ATOM     26  N   UNL     1      48.935  81.135  40.702  0.00  0.00    -0.211 NA
BRANCH  26  27
ATOM     27  C   UNL     1      49.038  82.389  41.352  0.00  0.00    +0.071 A 
ATOM     28  C   UNL     1      47.908  82.993  41.918  0.00  0.00    +0.017 A 
ATOM     29  C   UNL     1      47.974  84.189  42.575  0.00  0.00    +0.013 A 
ATOM     30  C   UNL     1      49.182  84.832  42.695  0.00  0.00    +0.058 A 
ATOM     31  C   UNL     1      50.326  84.293  42.164  0.00  0.00    +0.013 A 
ATOM     32  C   UNL     1      50.230  83.071  41.498  0.00  0.00    +0.017 A 
ATOM     33 CL   UNL     1      49.201  86.360  43.548  0.00  0.00    -0.082 Cl
ENDBRANCH  26  27
ENDBRANCH  15  26
TORSDOF 4
