REMARK  Name = Clofarabine
REMARK  2 active torsions:
REMARK  status: ('A' for Active; 'I' for Inactive)
REMARK    1  A    between atoms: N_9  and  C_10
REMARK    2  A    between atoms: C_13  and  C_15
REMARK                            x       y       z     vdW  Elec       q    Type
REMARK                         _______ _______ _______ _____ _____    ______ ____
ROOT
ATOM      1  C   UNL     1      44.498  80.126  38.996  0.00  0.00    +0.182 A 
ATOM      2  N   UNL     1      45.144  81.220  38.555  0.00  0.00    -0.219 NA
ATOM      3  C   UNL     1      46.099  81.541  39.415  0.00  0.00    +0.152 A 
ATOM      4  C   UNL     1      47.045  82.542  39.469  0.00  0.00    +0.193 A 
ATOM      5  N   UNL     1      47.862  82.536  40.532  0.00  0.00    -0.197 NA
ATOM      6  C   UNL     1      47.802  81.621  41.521  0.00  0.00    +0.227 A 
ATOM      7  N   UNL     1      46.880  80.647  41.464  0.00  0.00    -0.198 NA
ATOM      8  C   UNL     1      46.025  80.582  40.436  0.00  0.00    +0.170 A 
ATOM      9  N   UNL     1      45.027  79.713  40.160  0.00  0.00    -0.269 N 
ATOM     10 CL   UNL     1      48.943  81.731  42.866  0.00  0.00    -0.041 Cl
ATOM     11  N   UNL     1      47.114  83.505  38.437  0.00  0.00    -0.105 NA
ENDROOT
BRANCH   9  12
ATOM     12  C   UNL     1      44.592  78.583  40.915  0.00  0.00    +0.243 C 
ATOM     13  C   UNL     1      43.237  78.071  40.523  0.00  0.00    +0.243 C 
ATOM     14  C   UNL     1      43.268  76.696  41.172  0.00  0.00    +0.218 C 
ATOM     15  C   UNL     1      44.721  76.359  41.087  0.00  0.00    +0.183 C 
ATOM     16  O   UNL     1      45.406  77.480  40.666  0.00  0.00    -0.330 OA
ATOM     17  O   UNL     1      42.450  75.796  40.516  0.00  0.00    -0.217 OA
ATOM     18  F   UNL     1      42.211  78.844  41.022  0.00  0.00    -0.230 F 
BRANCH  15  19
ATOM     19  C   UNL     1      44.984  75.256  40.076  0.00  0.00    +0.214 C 
ATOM     20  O   UNL     1      45.360  75.793  38.847  0.00  0.00    -0.218 OA
ENDBRANCH  15  19
ENDBRANCH   9  12
TORSDOF 2
