REMARK  Name = Clomiphene_Citrate
REMARK  14 active torsions:
REMARK  status: ('A' for Active; 'I' for Inactive)
REMARK    1  A    between atoms: C_2  and  N_3
REMARK    2  A    between atoms: N_3  and  C_4
REMARK    3  A    between atoms: N_3  and  C_6
REMARK    4  A    between atoms: C_6  and  C_7
REMARK    5  A    between atoms: C_7  and  O_8
REMARK    6  A    between atoms: O_8  and  C_9
REMARK    7  A    between atoms: C_12  and  C_15
REMARK    8  A    between atoms: C_15  and  C_24
REMARK    9  A    between atoms: C_16  and  C_17
REMARK   10  A    between atoms: C_30  and  C_31
REMARK   11  A    between atoms: C_30  and  C_34
REMARK   12  A    between atoms: C_34  and  C_35
REMARK   13  A    between atoms: C_34  and  C_39
REMARK   14  A    between atoms: C_35  and  C_36
REMARK                            x       y       z     vdW  Elec       q    Type
REMARK                         _______ _______ _______ _____ _____    ______ ____
ROOT
ATOM      1  C   UNL     1      48.127  81.129  40.813  0.00  0.00    +0.011 C 
ATOM      2  C   UNL     1      49.169  80.384  40.417  0.00  0.00    +0.058 C 
ATOM      3 CL   UNL     1      50.047  80.875  38.988  0.00  0.00    -0.082 Cl
ENDROOT
BRANCH   1   7
ATOM      4  C   UNL     1      44.285  79.958  39.481  0.00  0.00    +0.139 A 
ATOM      5  C   UNL     1      44.732  81.230  39.266  0.00  0.00    +0.037 A 
ATOM      6  C   UNL     1      46.005  81.664  39.678  0.00  0.00    +0.003 A 
ATOM      7  C   UNL     1      46.814  80.766  40.319  0.00  0.00    +0.001 A 
ATOM      8  C   UNL     1      46.374  79.451  40.550  0.00  0.00    +0.003 A 
ATOM      9  C   UNL     1      45.122  79.086  40.124  0.00  0.00    +0.037 A 
BRANCH   4  10
ATOM     10  O   UNL     1      43.045  79.565  39.070  0.00  0.00    -0.474 OA
BRANCH  10  11
ATOM     11  C   UNL     1      42.779  78.191  38.900  0.00  0.00    +0.223 C 
BRANCH  11  12
ATOM     12  C   UNL     1      41.531  77.918  38.135  0.00  0.00    +0.120 C 
BRANCH  12  13
ATOM     13  N   UNL     1      41.069  76.575  38.136  0.00  0.00    -0.270 NA
BRANCH  13  15
ATOM     14  C   UNL     1      41.217  74.537  36.881  0.00  0.00    +0.019 C 
ATOM     15  C   UNL     1      42.007  75.618  37.577  0.00  0.00    +0.072 C 
ENDBRANCH  13  15
BRANCH  13  16
ATOM     16  C   UNL     1      40.567  76.123  39.421  0.00  0.00    +0.072 C 
ATOM     17  C   UNL     1      39.100  76.435  39.528  0.00  0.00    +0.019 C 
ENDBRANCH  13  16
ENDBRANCH  12  13
ENDBRANCH  11  12
ENDBRANCH  10  11
ENDBRANCH   4  10
ENDBRANCH   1   7
BRANCH   2  18
ATOM     18  C   UNL     1      49.636  79.193  41.095  0.00  0.00    +0.011 A 
ATOM     19  C   UNL     1      49.434  78.895  42.419  0.00  0.00    +0.001 A 
ATOM     20  C   UNL     1      49.925  77.715  42.964  0.00  0.00    +0.000 A 
ATOM     21  C   UNL     1      50.627  76.819  42.183  0.00  0.00    +0.000 A 
ATOM     22  C   UNL     1      50.822  77.131  40.855  0.00  0.00    +0.000 A 
ATOM     23  C   UNL     1      50.350  78.277  40.306  0.00  0.00    +0.001 A 
ENDBRANCH   2  18
BRANCH   1  24
ATOM     24  C   UNL     1      48.381  82.179  41.802  0.00  0.00    +0.001 A 
ATOM     25  C   UNL     1      47.254  82.819  42.352  0.00  0.00    +0.000 A 
ATOM     26  C   UNL     1      47.362  83.798  43.294  0.00  0.00    +0.000 A 
ATOM     27  C   UNL     1      48.598  84.223  43.767  0.00  0.00    +0.000 A 
ATOM     28  C   UNL     1      49.693  83.598  43.230  0.00  0.00    +0.000 A 
ATOM     29  C   UNL     1      49.582  82.591  42.262  0.00  0.00    +0.000 A 
ENDBRANCH   1  24
TORSDOF 9
REMARK  Name = Clomiphene_Citrate
REMARK  14 active torsions:
REMARK  status: ('A' for Active; 'I' for Inactive)
REMARK    1  A    between atoms: C_2  and  N_3
REMARK    2  A    between atoms: N_3  and  C_4
REMARK    3  A    between atoms: N_3  and  C_6
REMARK    4  A    between atoms: C_6  and  C_7
REMARK    5  A    between atoms: C_7  and  O_8
REMARK    6  A    between atoms: O_8  and  C_9
REMARK    7  A    between atoms: C_12  and  C_15
REMARK    8  A    between atoms: C_15  and  C_24
REMARK    9  A    between atoms: C_16  and  C_17
REMARK   10  A    between atoms: C_30  and  C_31
REMARK   11  A    between atoms: C_30  and  C_34
REMARK   12  A    between atoms: C_34  and  C_35
REMARK   13  A    between atoms: C_34  and  C_39
REMARK   14  A    between atoms: C_35  and  C_36
REMARK                            x       y       z     vdW  Elec       q    Type
REMARK                         _______ _______ _______ _____ _____    ______ ____
ROOT
ATOM      1  C   UNL     1      45.733  81.154  40.533  0.00  0.00    +0.240 C 
ATOM      2  O   UNL     1      45.148  81.578  41.745  0.00  0.00    -0.213 OA
ENDROOT
BRANCH   1   3
ATOM      3  C   UNL     1      45.405  82.107  39.443  0.00  0.00    +0.393 C 
ATOM      4  O   UNL     1      44.640  83.061  39.680  0.00  0.00    -0.243 OA
ATOM      5  O   UNL     1      45.945  81.924  38.202  0.00  0.00    -0.243 OA
ENDBRANCH   1   3
BRANCH   1   6
ATOM      6  C   UNL     1      45.167  79.815  40.142  0.00  0.00    +0.156 C 
BRANCH   6   7
ATOM      7  C   UNL     1      44.419  79.261  41.294  0.00  0.00    +0.368 C 
ATOM      8  O   UNL     1      43.997  78.094  41.288  0.00  0.00    -0.246 OA
ATOM      9  O   UNL     1      44.153  80.022  42.439  0.00  0.00    -0.246 OA
ENDBRANCH   6   7
ENDBRANCH   1   6
BRANCH   1  10
ATOM     10  C   UNL     1      47.216  81.158  40.714  0.00  0.00    +0.156 C 
BRANCH  10  11
ATOM     11  C   UNL     1      47.751  82.306  41.452  0.00  0.00    +0.368 C 
ATOM     12  O   UNL     1      47.143  83.394  41.613  0.00  0.00    -0.246 OA
ATOM     13  O   UNL     1      49.014  82.189  42.011  0.00  0.00    -0.246 OA
ENDBRANCH  10  11
ENDBRANCH   1  10
TORSDOF 5
