REMARK  Name = Clomocycline
REMARK  3 active torsions:
REMARK  status: ('A' for Active; 'I' for Inactive)
REMARK    1  A    between atoms: C_6  and  N_32
REMARK    2  A    between atoms: C_9  and  C_27
REMARK    3  A    between atoms: N_29  and  C_30
REMARK                            x       y       z     vdW  Elec       q    Type
REMARK                         _______ _______ _______ _____ _____    ______ ____
ROOT
ATOM      1  C   UNL     1      47.166  81.677  44.002  0.00  0.00    +0.038 C 
ATOM      2  C   UNL     1      47.399  82.219  42.644  0.00  0.00    +0.150 C 
ATOM      3  C   UNL     1      46.659  81.484  41.596  0.00  0.00    +0.061 C 
ATOM      4  C   UNL     1      46.565  79.954  41.753  0.00  0.00    +0.012 C 
ATOM      5  C   UNL     1      45.363  79.537  40.938  0.00  0.00    +0.065 C 
ATOM      6  C   UNL     1      44.781  78.214  41.154  0.00  0.00    +0.124 C 
ATOM      7  C   UNL     1      43.790  78.009  40.038  0.00  0.00    +0.195 C 
ATOM      8  O   UNL     1      43.400  76.845  39.673  0.00  0.00    -0.290 OA
ATOM      9  C   UNL     1      43.236  79.175  39.328  0.00  0.00    +0.128 C 
ATOM     10  C   UNL     1      44.071  80.152  39.020  0.00  0.00    +0.215 C 
ATOM     11  C   UNL     1      45.488  79.881  39.469  0.00  0.00    +0.237 C 
ATOM     12  C   UNL     1      46.267  81.079  39.174  0.00  0.00    +0.207 C 
ATOM     13  O   UNL     1      46.217  81.588  38.030  0.00  0.00    -0.289 OA
ATOM     14  C   UNL     1      47.123  81.708  40.204  0.00  0.00    +0.057 C 
ATOM     15  C   UNL     1      48.216  82.328  39.873  0.00  0.00    +0.197 C 
ATOM     16  C   UNL     1      49.055  82.844  40.944  0.00  0.00    +0.077 A 
ATOM     17  C   UNL     1      50.278  83.393  40.546  0.00  0.00    +0.199 A 
ATOM     18  C   UNL     1      51.176  83.797  41.474  0.00  0.00    +0.043 A 
ATOM     19  C   UNL     1      50.871  83.660  42.799  0.00  0.00    +0.014 A 
ATOM     20  C   UNL     1      49.638  83.109  43.177  0.00  0.00    +0.056 A 
ATOM     21  C   UNL     1      48.703  82.691  42.261  0.00  0.00    +0.022 A 
ATOM     22 CL   UNL     1      49.294  82.932  44.855  0.00  0.00    -0.082 Cl
ATOM     23  O   UNL     1      50.575  83.525  39.200  0.00  0.00    -0.286 OA
ATOM     24  O   UNL     1      48.550  82.482  38.528  0.00  0.00    -0.287 OA
ATOM     25  O   UNL     1      46.024  78.809  38.759  0.00  0.00    -0.210 OA
ATOM     26  O   UNL     1      43.723  81.296  38.367  0.00  0.00    -0.288 OA
ATOM     27  O   UNL     1      46.643  83.484  42.723  0.00  0.00    -0.221 OA
ENDROOT
BRANCH   9  28
ATOM     28  C   UNL     1      41.828  79.190  38.995  0.00  0.00    +0.273 C 
ATOM     29  O   UNL     1      40.963  79.220  39.935  0.00  0.00    -0.268 OA
ATOM     30  N   UNL     1      41.328  79.173  37.690  0.00  0.00    -0.167 NA
BRANCH  30  31
ATOM     31  C   UNL     1      40.649  77.939  37.236  0.00  0.00    +0.298 C 
ATOM     32  O   UNL     1      39.311  78.233  37.003  0.00  0.00    -0.194 OA
ENDBRANCH  30  31
ENDBRANCH   9  28
BRANCH   6  33
ATOM     33  N   UNL     1      45.569  77.059  41.226  0.00  0.00    -0.265 NA
ATOM     34  C   UNL     1      44.724  75.909  40.893  0.00  0.00    +0.090 C 
ATOM     35  C   UNL     1      46.257  76.739  42.425  0.00  0.00    +0.090 C 
ENDBRANCH   6  33
TORSDOF 3
