REMARK  Name = Clonixin
REMARK  3 active torsions:
REMARK  status: ('A' for Active; 'I' for Inactive)
REMARK    1  A    between atoms: C_3  and  N_9
REMARK    2  A    between atoms: N_9  and  C_10
REMARK    3  A    between atoms: C_11  and  C_16
REMARK                            x       y       z     vdW  Elec       q    Type
REMARK                         _______ _______ _______ _____ _____    ______ ____
ROOT
ATOM      1  N   UNL     1      47.291  82.163  40.607  0.00  0.00    -0.194 NA
ENDROOT
BRANCH   1   4
ATOM      2  C   UNL     1      47.013  84.166  42.493  0.00  0.00    +0.033 C 
ATOM      3  C   UNL     1      48.340  83.461  42.396  0.00  0.00    +0.004 A 
ATOM      4  C   UNL     1      48.426  82.463  41.440  0.00  0.00    +0.069 A 
ATOM      5  C   UNL     1      49.621  81.789  41.323  0.00  0.00    +0.016 A 
ATOM      6  C   UNL     1      50.694  82.120  42.151  0.00  0.00    +0.002 A 
ATOM      7  C   UNL     1      50.613  83.111  43.101  0.00  0.00    +0.011 A 
ATOM      8  C   UNL     1      49.400  83.766  43.191  0.00  0.00    +0.055 A 
ATOM      9 CL   UNL     1      49.249  85.029  44.385  0.00  0.00    -0.083 Cl
ENDBRANCH   1   4
BRANCH   1  10
ATOM     10  C   UNL     1      46.718  80.861  40.704  0.00  0.00    +0.158 A 
ATOM     11  C   UNL     1      45.703  80.522  39.846  0.00  0.00    +0.113 A 
ATOM     12  C   UNL     1      45.163  79.258  39.965  0.00  0.00    +0.011 A 
ATOM     13  C   UNL     1      45.647  78.390  40.922  0.00  0.00    +0.021 A 
ATOM     14  C   UNL     1      46.681  78.744  41.792  0.00  0.00    +0.100 A 
ATOM     15  N   UNL     1      47.178  79.982  41.643  0.00  0.00    -0.227 NA
BRANCH  11  16
ATOM     16  C   UNL     1      45.231  81.478  38.868  0.00  0.00    +0.391 C 
ATOM     17  O   UNL     1      45.713  82.628  38.816  0.00  0.00    -0.240 OA
ATOM     18  O   UNL     1      44.227  81.185  37.934  0.00  0.00    -0.240 OA
ENDBRANCH  11  16
ENDBRANCH   1  10
TORSDOF 3
