REMARK  Name = Clonazepam
REMARK  2 active torsions:
REMARK  status: ('A' for Active; 'I' for Inactive)
REMARK    1  A    between atoms: C_8  and  N_11
REMARK    2  A    between atoms: C_14  and  C_16
REMARK                            x       y       z     vdW  Elec       q    Type
REMARK                         _______ _______ _______ _____ _____    ______ ____
ROOT
ATOM      1  C   UNL     1      46.144  83.169  39.130  0.00  0.00    +0.212 C 
ATOM      2  C   UNL     1      45.574  82.054  38.348  0.00  0.00    +0.270 C 
ATOM      3  O   UNL     1      45.397  82.312  37.110  0.00  0.00    -0.271 OA
ATOM      4  N   UNL     1      45.189  80.749  38.724  0.00  0.00    -0.177 NA
ATOM      5  C   UNL     1      45.483  80.104  39.976  0.00  0.00    +0.075 A 
ATOM      6  C   UNL     1      46.386  80.564  40.928  0.00  0.00    +0.034 A 
ATOM      7  C   UNL     1      46.577  79.849  42.091  0.00  0.00    +0.027 A 
ATOM      8  C   UNL     1      45.886  78.669  42.339  0.00  0.00    +0.143 A 
ATOM      9  C   UNL     1      45.004  78.253  41.369  0.00  0.00    +0.025 A 
ATOM     10  C   UNL     1      44.787  78.946  40.188  0.00  0.00    +0.018 A 
ATOM     11  C   UNL     1      47.219  81.756  40.904  0.00  0.00    +0.079 C 
ATOM     12  N   UNL     1      47.068  82.771  40.154  0.00  0.00    -0.260 NA
ENDROOT
BRANCH  11  13
ATOM     13  C   UNL     1      48.319  81.717  41.857  0.00  0.00    +0.028 A 
ATOM     14  C   UNL     1      49.347  80.829  41.784  0.00  0.00    +0.002 A 
ATOM     15  C   UNL     1      50.349  80.850  42.717  0.00  0.00    +0.000 A 
ATOM     16  C   UNL     1      50.365  81.761  43.764  0.00  0.00    +0.001 A 
ATOM     17  C   UNL     1      49.305  82.643  43.802  0.00  0.00    +0.011 A 
ATOM     18  C   UNL     1      48.294  82.632  42.872  0.00  0.00    +0.059 A 
ATOM     19 CL   UNL     1      46.971  83.809  43.005  0.00  0.00    -0.082 Cl
ENDBRANCH  11  13
BRANCH   8  20
ATOM     20  N   UNL     1      46.104  77.954  43.547  0.00  0.00    +0.058 N 
ATOM     21  O   UNL     1      45.349  77.036  43.920  0.00  0.00    -0.126 OA
ATOM     22  O   UNL     1      47.171  78.252  44.359  0.00  0.00    -0.126 OA
ENDBRANCH   8  20
TORSDOF 2
