REMARK  Name = Clorazepate
REMARK  2 active torsions:
REMARK  status: ('A' for Active; 'I' for Inactive)
REMARK    1  A    between atoms: C_4  and  C_7
REMARK    2  A    between atoms: CA_9  and  C_20
REMARK                            x       y       z     vdW  Elec       q    Type
REMARK                         _______ _______ _______ _____ _____    ______ ____
ROOT
ATOM      1  C   UNL     1      47.145  81.394  40.994  0.00  0.00    +0.078 C 
ATOM      2  N   UNL     1      47.357  81.918  39.806  0.00  0.00    -0.252 NA
ATOM      3  CA  UNL     1      46.798  81.486  38.518  0.00  0.00    +0.284 C 
ATOM      4  C   UNL     1      45.301  81.457  38.638  0.00  0.00    +0.279 C 
ATOM      5  O   UNL     1      44.612  82.229  37.938  0.00  0.00    -0.270 OA
ATOM      6  N   UNL     1      44.574  80.589  39.517  0.00  0.00    -0.177 NA
ATOM      7  C   UNL     1      45.153  79.852  40.617  0.00  0.00    +0.075 A 
ATOM      8  C   UNL     1      46.355  80.187  41.239  0.00  0.00    +0.033 A 
ATOM      9  C   UNL     1      46.885  79.372  42.210  0.00  0.00    +0.014 A 
ATOM     10  C   UNL     1      46.215  78.229  42.566  0.00  0.00    +0.058 A 
ATOM     11  C   UNL     1      45.007  77.919  41.929  0.00  0.00    +0.013 A 
ATOM     12  C   UNL     1      44.469  78.716  40.958  0.00  0.00    +0.018 A 
ATOM     13 CL   UNL     1      46.912  77.218  43.812  0.00  0.00    -0.082 Cl
ENDROOT
BRANCH   1  17
ATOM     14  C   UNL     1      49.315  82.840  44.318  0.00  0.00    +0.000 A 
ATOM     15  C   UNL     1      48.069  83.335  44.069  0.00  0.00    +0.000 A 
ATOM     16  C   UNL     1      47.304  82.927  42.979  0.00  0.00    +0.001 A 
ATOM     17  C   UNL     1      47.808  82.002  42.130  0.00  0.00    +0.017 A 
ATOM     18  C   UNL     1      49.099  81.485  42.381  0.00  0.00    +0.001 A 
ATOM     19  C   UNL     1      49.821  81.901  43.448  0.00  0.00    +0.000 A 
ENDBRANCH   1  17
BRANCH   3  20
ATOM     20  C   UNL     1      47.244  82.415  37.483  0.00  0.00    +0.396 C 
ATOM     21  O   UNL     1      46.537  82.597  36.467  0.00  0.00    -0.243 OA
ATOM     22  OXT UNL     1      48.438  83.107  37.596  0.00  0.00    -0.243 OA
ENDBRANCH   3  20
TORSDOF 2
