REMARK  Name = Clotrimazole
REMARK  4 active torsions:
REMARK  status: ('A' for Active; 'I' for Inactive)
REMARK    1  A    between atoms: C_4  and  C_7
REMARK    2  A    between atoms: C_7  and  C_8
REMARK    3  A    between atoms: C_7  and  C_14
REMARK    4  A    between atoms: C_7  and  N_21
REMARK                            x       y       z     vdW  Elec       q    Type
REMARK                         _______ _______ _______ _____ _____    ______ ____
ROOT
ATOM      1  C   UNL     1      47.427  80.664  40.965  0.00  0.00    +0.128 C 
ENDROOT
BRANCH   1   2
ATOM      2  C   UNL     1      46.461  79.724  41.641  0.00  0.00    +0.015 A 
ATOM      3  C   UNL     1      46.766  78.980  42.747  0.00  0.00    -0.001 A 
ATOM      4  C   UNL     1      45.852  78.128  43.352  0.00  0.00    -0.000 A 
ATOM      5  C   UNL     1      44.581  78.023  42.816  0.00  0.00    +0.001 A 
ATOM      6  C   UNL     1      44.249  78.762  41.700  0.00  0.00    +0.011 A 
ATOM      7  C   UNL     1      45.184  79.604  41.120  0.00  0.00    +0.056 A 
ATOM      8 CL   UNL     1      44.655  80.480  39.679  0.00  0.00    -0.082 Cl
ENDBRANCH   1   2
BRANCH   1  12
ATOM      9  C   UNL     1      50.882  78.290  40.452  0.00  0.00    -0.000 A 
ATOM     10  C   UNL     1      49.767  78.081  39.654  0.00  0.00    -0.000 A 
ATOM     11  C   UNL     1      48.657  78.874  39.855  0.00  0.00    -0.002 A 
ATOM     12  C   UNL     1      48.666  79.866  40.845  0.00  0.00    +0.004 A 
ATOM     13  C   UNL     1      49.760  80.072  41.628  0.00  0.00    -0.002 A 
ATOM     14  C   UNL     1      50.876  79.268  41.420  0.00  0.00    -0.000 A 
ENDBRANCH   1  12
BRANCH   1  15
ATOM     15  C   UNL     1      47.681  81.887  41.773  0.00  0.00    +0.004 A 
ATOM     16  C   UNL     1      48.875  82.563  41.616  0.00  0.00    -0.002 A 
ATOM     17  C   UNL     1      49.118  83.688  42.373  0.00  0.00    -0.000 A 
ATOM     18  C   UNL     1      48.179  84.136  43.280  0.00  0.00    -0.000 A 
ATOM     19  C   UNL     1      46.980  83.488  43.462  0.00  0.00    -0.000 A 
ATOM     20  C   UNL     1      46.765  82.352  42.679  0.00  0.00    -0.002 A 
ENDBRANCH   1  15
BRANCH   1  21
ATOM     21  N   UNL     1      46.830  81.071  39.727  0.00  0.00    -0.301 N 
ATOM     22  C   UNL     1      46.064  80.329  38.882  0.00  0.00    +0.099 A 
ATOM     23  C   UNL     1      45.690  81.054  37.791  0.00  0.00    +0.119 A 
ATOM     24  N   UNL     1      46.232  82.271  37.957  0.00  0.00    -0.222 NA
ATOM     25  C   UNL     1      46.921  82.269  39.134  0.00  0.00    +0.179 A 
ENDBRANCH   1  21
TORSDOF 4
