REMARK  Name = Cloxacillin
REMARK  4 active torsions:
REMARK  status: ('A' for Active; 'I' for Inactive)
REMARK    1  A    between atoms: C_3  and  C_14
REMARK    2  A    between atoms: C_4  and  C_7
REMARK    3  A    between atoms: N_16  and  CA_17
REMARK    4  A    between atoms: CA_22  and  C_27
REMARK                            x       y       z     vdW  Elec       q    Type
REMARK                         _______ _______ _______ _____ _____    ______ ____
ROOT
ATOM      1  C   UNL     1      44.605  80.447  39.127  0.00  0.00    +0.270 C 
ATOM      2  O   UNL     1      44.553  81.290  38.151  0.00  0.00    -0.268 OA
ATOM      3  N   UNL     1      45.595  80.657  40.125  0.00  0.00    -0.191 NA
ENDROOT
BRANCH   3   4
ATOM      4  CA  UNL     1      46.970  80.828  39.709  0.00  0.00    +0.200 C 
ATOM      5  C   UNL     1      47.989  81.019  40.766  0.00  0.00    +0.153 C 
ATOM      6  N   UNL     1      48.028  82.475  40.534  0.00  0.00    -0.259 N 
ATOM      7  C   UNL     1      47.337  82.214  39.318  0.00  0.00    +0.249 C 
ATOM      8  O   UNL     1      47.086  82.859  38.260  0.00  0.00    -0.273 OA
ATOM      9  CA  UNL     1      48.697  83.114  41.634  0.00  0.00    +0.189 C 
ATOM     10  C   UNL     1      47.975  82.741  42.897  0.00  0.00    +0.068 C 
ATOM     11  S   UNL     1      47.325  81.073  42.480  0.00  0.00    -0.118 S 
ATOM     12  C   UNL     1      46.877  83.685  43.272  0.00  0.00    +0.013 C 
ATOM     13  C   UNL     1      48.958  82.627  44.041  0.00  0.00    +0.013 C 
BRANCH   9  14
ATOM     14  C   UNL     1      50.133  82.847  41.641  0.00  0.00    +0.383 C 
ATOM     15  O   UNL     1      50.608  81.935  40.923  0.00  0.00    -0.244 OA
ATOM     16  OXT UNL     1      51.033  83.563  42.417  0.00  0.00    -0.244 OA
ENDBRANCH   9  14
ENDBRANCH   3   4
BRANCH   1  19
ATOM     17  C   UNL     1      42.222  79.938  37.003  0.00  0.00    +0.076 C 
ATOM     18  C   UNL     1      42.625  79.145  38.198  0.00  0.00    +0.159 A 
ATOM     19  C   UNL     1      43.642  79.382  39.091  0.00  0.00    +0.109 A 
ATOM     20  C   UNL     1      43.563  78.336  39.997  0.00  0.00    +0.128 A 
ATOM     21  N   UNL     1      42.540  77.530  39.636  0.00  0.00    -0.077 NA
ATOM     22  O   UNL     1      42.001  78.027  38.572  0.00  0.00    -0.358 OA
BRANCH  20  23
ATOM     23  C   UNL     1      44.368  78.040  41.175  0.00  0.00    +0.032 A 
ATOM     24  C   UNL     1      44.322  78.811  42.301  0.00  0.00    +0.002 A 
ATOM     25  C   UNL     1      45.128  78.488  43.398  0.00  0.00    +0.000 A 
ATOM     26  C   UNL     1      45.965  77.402  43.352  0.00  0.00    +0.001 A 
ATOM     27  C   UNL     1      46.014  76.624  42.219  0.00  0.00    +0.011 A 
ATOM     28  C   UNL     1      45.225  76.941  41.149  0.00  0.00    +0.059 A 
ATOM     29 CL   UNL     1      45.320  75.914  39.714  0.00  0.00    -0.082 Cl
ENDBRANCH  20  23
ENDBRANCH   1  19
TORSDOF 4
