REMARK  Name = Clozapine
REMARK  0 active torsions:
REMARK  status: ('A' for Active; 'I' for Inactive)
REMARK                            x       y       z     vdW  Elec       q    Type
REMARK                         _______ _______ _______ _____ _____    ______ ____
ROOT
ATOM      1  C   UNL     1      39.081  76.879  37.011  0.00  0.00    +0.090 C 
ATOM      2  N   UNL     1      40.510  76.947  37.082  0.00  0.00    -0.269 NA
ATOM      3  C   UNL     1      41.091  76.195  38.140  0.00  0.00    +0.094 C 
ATOM      4  C   UNL     1      41.448  76.992  39.349  0.00  0.00    +0.109 C 
ATOM      5  N   UNL     1      42.288  78.092  38.953  0.00  0.00    -0.290 N 
ATOM      6  C   UNL     1      41.873  78.874  37.820  0.00  0.00    +0.109 C 
ATOM      7  C   UNL     1      41.092  78.187  36.779  0.00  0.00    +0.094 C 
ATOM      8  C   UNL     1      43.454  78.352  39.725  0.00  0.00    +0.133 C 
ATOM      9  N   UNL     1      44.153  79.402  39.360  0.00  0.00    -0.229 NA
ATOM     10  C   UNL     1      45.366  79.953  39.902  0.00  0.00    +0.099 A 
ATOM     11  C   UNL     1      46.246  79.348  40.765  0.00  0.00    +0.088 A 
ATOM     12  C   UNL     1      47.369  80.008  41.187  0.00  0.00    +0.019 A 
ATOM     13  C   UNL     1      47.618  81.292  40.741  0.00  0.00    +0.013 A 
ATOM     14  C   UNL     1      46.740  81.892  39.882  0.00  0.00    +0.059 A 
ATOM     15  C   UNL     1      45.622  81.221  39.468  0.00  0.00    +0.032 A 
ATOM     16 CL   UNL     1      47.063  83.525  39.319  0.00  0.00    -0.082 Cl
ATOM     17  N   UNL     1      46.180  78.055  41.340  0.00  0.00    -0.211 NA
ATOM     18  C   UNL     1      44.968  77.316  41.524  0.00  0.00    +0.073 A 
ATOM     19  C   UNL     1      45.039  76.391  42.521  0.00  0.00    +0.017 A 
ATOM     20  C   UNL     1      43.981  75.581  42.867  0.00  0.00    +0.001 A 
ATOM     21  C   UNL     1      42.817  75.739  42.156  0.00  0.00    +0.000 A 
ATOM     22  C   UNL     1      42.680  76.662  41.130  0.00  0.00    +0.004 A 
ATOM     23  C   UNL     1      43.761  77.450  40.817  0.00  0.00    +0.047 A 
ENDROOT
TORSDOF 0
