REMARK  Name = Cobicistat/darunavir
REMARK  32 active torsions:
REMARK  status: ('A' for Active; 'I' for Inactive)
REMARK    1  A    between atoms: C_2  and  C_4
REMARK    2  A    between atoms: C_4  and  N_5
REMARK    3  A    between atoms: N_5  and  C_6
REMARK    4  A    between atoms: N_5  and  S_29
REMARK    5  A    between atoms: C_6  and  C_7
REMARK    6  A    between atoms: C_7  and  C_8
REMARK    7  A    between atoms: C_8  and  C_9
REMARK    8  A    between atoms: C_8  and  N_16
REMARK    9  A    between atoms: C_9  and  C_10
REMARK   10  A    between atoms: C_17  and  O_19
REMARK   11  A    between atoms: O_19  and  C_20
REMARK   12  A    between atoms: S_29  and  C_32
REMARK   13  A    between atoms: C_40  and  C_42
REMARK   14  A    between atoms: C_44  and  C_47
REMARK   15  A    between atoms: C_47  and  N_48
REMARK   16  A    between atoms: N_52  and  C_53
REMARK   17  A    between atoms: C_53  and  C_54
REMARK   18  A    between atoms: C_53  and  C_62
REMARK   19  A    between atoms: C_54  and  C_55
REMARK   20  A    between atoms: C_55  and  N_56
REMARK   21  A    between atoms: N_64  and  C_65
REMARK   22  A    between atoms: C_65  and  C_66
REMARK   23  A    between atoms: C_65  and  C_86
REMARK   24  A    between atoms: C_66  and  C_67
REMARK   25  A    between atoms: C_67  and  C_68
REMARK   26  A    between atoms: C_68  and  C_69
REMARK   27  A    between atoms: C_68  and  N_76
REMARK   28  A    between atoms: C_69  and  C_70
REMARK   29  A    between atoms: C_77  and  O_79
REMARK   30  A    between atoms: O_79  and  C_80
REMARK   31  A    between atoms: C_80  and  C_81
REMARK   32  A    between atoms: C_86  and  C_87
REMARK                            x       y       z     vdW  Elec       q    Type
REMARK                         _______ _______ _______ _____ _____    ______ ____
ROOT
ATOM      1  C   UNL     1      36.397  73.866  35.599  0.00  0.00    +0.135 C 
ENDROOT
BRANCH   1   2
ATOM      2  N   UNL     1      36.375  75.246  35.123  0.00  0.00    -0.167 NA
ATOM      3  C   UNL     1      36.669  75.589  33.768  0.00  0.00    +0.421 C 
ATOM      4  O   UNL     1      36.739  74.691  32.909  0.00  0.00    -0.225 OA
BRANCH   3   5
ATOM      5  O   UNL     1      36.886  76.892  33.353  0.00  0.00    -0.435 OA
BRANCH   5   6
ATOM      6  C   UNL     1      36.557  77.319  32.021  0.00  0.00    +0.205 C 
ATOM      7  C   UNL     1      35.354  76.497  31.609  0.00  0.00    +0.188 C 
ATOM      8  O   UNL     1      34.745  77.306  30.668  0.00  0.00    -0.327 OA
ATOM      9  C   UNL     1      34.684  78.543  31.278  0.00  0.00    +0.239 C 
ATOM     10  C   UNL     1      35.988  78.715  32.037  0.00  0.00    +0.102 C 
ATOM     11  C   UNL     1      35.512  79.149  33.391  0.00  0.00    +0.041 C 
ATOM     12  C   UNL     1      34.076  79.548  33.108  0.00  0.00    +0.145 C 
ATOM     13  O   UNL     1      33.676  78.550  32.218  0.00  0.00    -0.330 OA
ENDBRANCH   5   6
ENDBRANCH   3   5
ENDBRANCH   1   2
BRANCH   1  14
ATOM     14  C   UNL     1      37.544  73.798  36.609  0.00  0.00    +0.190 C 
ATOM     15  O   UNL     1      37.522  75.046  37.255  0.00  0.00    -0.220 OA
BRANCH  14  16
ATOM     16  C   UNL     1      38.871  73.641  35.966  0.00  0.00    +0.130 C 
BRANCH  16  17
ATOM     17  N   UNL     1      39.022  72.287  35.517  0.00  0.00    -0.153 NA
BRANCH  17  18
ATOM     18  S   UNL     1      37.807  71.644  34.573  0.00  0.00    +0.063 S 
ATOM     19  O   UNL     1      36.838  72.675  34.032  0.00  0.00    -0.153 OA
ATOM     20  O   UNL     1      36.953  70.731  35.453  0.00  0.00    -0.153 OA
BRANCH  18  21
ATOM     21  C   UNL     1      38.294  70.695  33.195  0.00  0.00    +0.122 A 
ATOM     22  C   UNL     1      38.428  71.291  31.945  0.00  0.00    +0.021 A 
ATOM     23  C   UNL     1      38.805  70.594  30.823  0.00  0.00    +0.019 A 
ATOM     24  C   UNL     1      39.070  69.243  30.898  0.00  0.00    +0.089 A 
ATOM     25  C   UNL     1      38.939  68.643  32.132  0.00  0.00    +0.019 A 
ATOM     26  C   UNL     1      38.560  69.339  33.268  0.00  0.00    +0.021 A 
ATOM     27  N   UNL     1      39.460  68.498  29.760  0.00  0.00    -0.128 NA
ENDBRANCH  18  21
ENDBRANCH  17  18
BRANCH  17  28
ATOM     28  C   UNL     1      40.327  71.805  35.476  0.00  0.00    +0.096 C 
BRANCH  28  30
ATOM     29  C   UNL     1      42.752  72.132  36.115  0.00  0.00    +0.001 C 
ATOM     30  C   UNL     1      41.453  72.761  35.686  0.00  0.00    +0.018 C 
ATOM     31  C   UNL     1      41.764  73.538  34.398  0.00  0.00    +0.001 C 
ENDBRANCH  28  30
ENDBRANCH  17  28
ENDBRANCH  16  17
ENDBRANCH  14  16
ENDBRANCH   1  14
BRANCH   1  32
ATOM     32  C   UNL     1      35.125  73.615  36.363  0.00  0.00    +0.051 C 
BRANCH  32  33
ATOM     33  C   UNL     1      33.962  73.369  35.502  0.00  0.00    -0.020 A 
ATOM     34  C   UNL     1      33.098  74.339  35.042  0.00  0.00    -0.004 A 
ATOM     35  C   UNL     1      32.023  74.008  34.230  0.00  0.00    -0.000 A 
ATOM     36  C   UNL     1      31.786  72.704  33.861  0.00  0.00    -0.000 A 
ATOM     37  C   UNL     1      32.637  71.734  34.312  0.00  0.00    -0.000 A 
ATOM     38  C   UNL     1      33.715  72.067  35.125  0.00  0.00    -0.004 A 
ENDBRANCH  32  33
ENDBRANCH   1  32
TORSDOF 12
REMARK  Name = Cobicistat/darunavir
REMARK  32 active torsions:
REMARK  status: ('A' for Active; 'I' for Inactive)
REMARK    1  A    between atoms: C_2  and  C_4
REMARK    2  A    between atoms: C_4  and  N_5
REMARK    3  A    between atoms: N_5  and  C_6
REMARK    4  A    between atoms: N_5  and  S_29
REMARK    5  A    between atoms: C_6  and  C_7
REMARK    6  A    between atoms: C_7  and  C_8
REMARK    7  A    between atoms: C_8  and  C_9
REMARK    8  A    between atoms: C_8  and  N_16
REMARK    9  A    between atoms: C_9  and  C_10
REMARK   10  A    between atoms: C_17  and  O_19
REMARK   11  A    between atoms: O_19  and  C_20
REMARK   12  A    between atoms: S_29  and  C_32
REMARK   13  A    between atoms: C_40  and  C_42
REMARK   14  A    between atoms: C_44  and  C_47
REMARK   15  A    between atoms: C_47  and  N_48
REMARK   16  A    between atoms: N_52  and  C_53
REMARK   17  A    between atoms: C_53  and  C_54
REMARK   18  A    between atoms: C_53  and  C_62
REMARK   19  A    between atoms: C_54  and  C_55
REMARK   20  A    between atoms: C_55  and  N_56
REMARK   21  A    between atoms: N_64  and  C_65
REMARK   22  A    between atoms: C_65  and  C_66
REMARK   23  A    between atoms: C_65  and  C_86
REMARK   24  A    between atoms: C_66  and  C_67
REMARK   25  A    between atoms: C_67  and  C_68
REMARK   26  A    between atoms: C_68  and  C_69
REMARK   27  A    between atoms: C_68  and  N_76
REMARK   28  A    between atoms: C_69  and  C_70
REMARK   29  A    between atoms: C_77  and  O_79
REMARK   30  A    between atoms: O_79  and  C_80
REMARK   31  A    between atoms: C_80  and  C_81
REMARK   32  A    between atoms: C_86  and  C_87
REMARK                            x       y       z     vdW  Elec       q    Type
REMARK                         _______ _______ _______ _____ _____    ______ ____
ROOT
ATOM      1  C   UNL     1      36.926  77.247  36.765  0.00  0.00    +0.100 C 
ENDROOT
BRANCH   1   4
ATOM      2  C   UNL     1      38.494  75.923  38.185  0.00  0.00    +0.261 C 
ATOM      3  O   UNL     1      37.935  76.075  39.291  0.00  0.00    -0.271 OA
ATOM      4  N   UNL     1      37.691  76.043  36.979  0.00  0.00    -0.205 NA
BRANCH   2   5
ATOM      5  C   UNL     1      39.930  75.626  38.049  0.00  0.00    +0.176 C 
BRANCH   5  10
ATOM      6  N   UNL     1      42.495  77.934  39.534  0.00  0.00    -0.255 N 
ATOM      7  C   UNL     1      42.193  77.973  40.971  0.00  0.00    +0.117 C 
ATOM      8  C   UNL     1      42.032  76.796  38.808  0.00  0.00    +0.324 C 
ATOM      9  O   UNL     1      42.789  75.861  38.475  0.00  0.00    -0.251 OA
ATOM     10  N   UNL     1      40.683  76.742  38.467  0.00  0.00    -0.181 NA
BRANCH   6  11
ATOM     11  C   UNL     1      43.219  79.022  38.988  0.00  0.00    +0.141 C 
BRANCH  11  14
ATOM     12  C   UNL     1      46.406  80.337  40.260  0.00  0.00    +0.088 A 
ATOM     13  N   UNL     1      45.217  80.248  39.704  0.00  0.00    -0.245 NA
ATOM     14  C   UNL     1      44.599  79.109  39.637  0.00  0.00    +0.086 A 
ATOM     15  C   UNL     1      45.239  78.014  40.167  0.00  0.00    +0.053 A 
ATOM     16  S   UNL     1      46.706  78.725  40.731  0.00  0.00    -0.071 S 
BRANCH  12  18
ATOM     17  C   UNL     1      48.677  81.121  40.844  0.00  0.00    +0.007 C 
ATOM     18  C   UNL     1      47.282  81.554  40.445  0.00  0.00    +0.047 C 
ATOM     19  C   UNL     1      47.349  82.327  39.171  0.00  0.00    +0.007 C 
ENDBRANCH  12  18
ENDBRANCH  11  14
ENDBRANCH   6  11
ENDBRANCH   5  10
BRANCH   5  20
ATOM     20  C   UNL     1      40.266  74.270  38.562  0.00  0.00    +0.048 C 
BRANCH  20  21
ATOM     21  C   UNL     1      39.362  73.159  38.167  0.00  0.00    +0.075 C 
BRANCH  21  22
ATOM     22  N   UNL     1      39.928  71.844  38.464  0.00  0.00    -0.268 NA
ATOM     23  C   UNL     1      39.459  70.823  37.565  0.00  0.00    +0.105 C 
ATOM     24  C   UNL     1      37.946  70.769  37.485  0.00  0.00    +0.159 C 
ATOM     25  O   UNL     1      37.342  70.891  38.716  0.00  0.00    -0.351 OA
ATOM     26  C   UNL     1      38.202  70.643  39.766  0.00  0.00    +0.159 C 
ATOM     27  C   UNL     1      39.423  71.508  39.794  0.00  0.00    +0.105 C 
ENDBRANCH  21  22
ENDBRANCH  20  21
ENDBRANCH   5  20
ENDBRANCH   2   5
ENDBRANCH   1   4
BRANCH   1  28
ATOM     28  C   UNL     1      35.815  77.073  35.738  0.00  0.00    +0.024 C 
BRANCH  28  29
ATOM     29  C   UNL     1      34.568  77.744  36.138  0.00  0.00    +0.024 C 
BRANCH  29  30
ATOM     30  C   UNL     1      33.353  77.724  35.345  0.00  0.00    +0.103 C 
BRANCH  30  31
ATOM     31  N   UNL     1      33.460  76.963  34.098  0.00  0.00    -0.170 NA
ATOM     32  C   UNL     1      32.283  76.697  33.369  0.00  0.00    +0.421 C 
ATOM     33  O   UNL     1      31.206  77.380  33.535  0.00  0.00    -0.225 OA
BRANCH  32  34
ATOM     34  O   UNL     1      32.147  75.695  32.409  0.00  0.00    -0.428 OA
BRANCH  34  35
ATOM     35  C   UNL     1      30.954  75.466  31.682  0.00  0.00    +0.245 C 
BRANCH  35  36
ATOM     36  C   UNL     1      31.083  74.317  30.721  0.00  0.00    +0.071 A 
ATOM     37  C   UNL     1      30.645  73.030  30.823  0.00  0.00    +0.105 A 
ATOM     38  N   UNL     1      30.897  72.217  29.843  0.00  0.00    -0.235 NA
ATOM     39  C   UNL     1      31.561  72.642  28.782  0.00  0.00    +0.134 A 
ATOM     40  S   UNL     1      31.855  74.287  29.174  0.00  0.00    -0.065 S 
ENDBRANCH  35  36
ENDBRANCH  34  35
ENDBRANCH  32  34
ENDBRANCH  30  31
BRANCH  30  41
ATOM     41  C   UNL     1      32.016  77.468  35.895  0.00  0.00    +0.048 C 
BRANCH  41  42
ATOM     42  C   UNL     1      31.588  78.128  37.135  0.00  0.00    -0.020 A 
ATOM     43  C   UNL     1      31.777  79.510  37.194  0.00  0.00    -0.004 A 
ATOM     44  C   UNL     1      31.444  80.190  38.325  0.00  0.00    -0.000 A 
ATOM     45  C   UNL     1      30.913  79.574  39.453  0.00  0.00    -0.000 A 
ATOM     46  C   UNL     1      30.742  78.210  39.355  0.00  0.00    -0.000 A 
ATOM     47  C   UNL     1      31.067  77.502  38.234  0.00  0.00    -0.004 A 
ENDBRANCH  41  42
ENDBRANCH  30  41
ENDBRANCH  29  30
ENDBRANCH  28  29
ENDBRANCH   1  28
BRANCH   1  48
ATOM     48  C   UNL     1      37.848  78.388  36.331  0.00  0.00    +0.048 C 
BRANCH  48  49
ATOM     49  C   UNL     1      37.705  79.542  37.227  0.00  0.00    -0.020 A 
ATOM     50  C   UNL     1      38.515  80.633  37.102  0.00  0.00    -0.004 A 
ATOM     51  C   UNL     1      38.364  81.720  37.936  0.00  0.00    -0.000 A 
ATOM     52  C   UNL     1      37.396  81.728  38.910  0.00  0.00    -0.000 A 
ATOM     53  C   UNL     1      36.569  80.637  39.052  0.00  0.00    -0.000 A 
ATOM     54  C   UNL     1      36.742  79.543  38.192  0.00  0.00    -0.004 A 
ENDBRANCH  48  49
ENDBRANCH   1  48
TORSDOF 20
