REMARK  Name = Cocaine
REMARK  5 active torsions:
REMARK  status: ('A' for Active; 'I' for Inactive)
REMARK    1  A    between atoms: C_7  and  C_19
REMARK    2  A    between atoms: C_8  and  O_10
REMARK    3  A    between atoms: O_10  and  C_11
REMARK    4  A    between atoms: C_11  and  C_13
REMARK    5  A    between atoms: C_19  and  O_21
REMARK                            x       y       z     vdW  Elec       q    Type
REMARK                         _______ _______ _______ _____ _____    ______ ____
ROOT
ATOM      1  C   UNL     1      43.666  78.044  38.429  0.00  0.00    +0.090 C 
ATOM      2  N   UNL     1      44.699  78.842  39.049  0.00  0.00    -0.273 NA
ATOM      3  C   UNL     1      45.040  78.171  40.314  0.00  0.00    +0.061 C 
ATOM      4  C   UNL     1      43.866  78.468  41.215  0.00  0.00    +0.017 C 
ATOM      5  C   UNL     1      43.074  79.559  40.505  0.00  0.00    +0.018 C 
ATOM      6  C   UNL     1      44.134  80.067  39.520  0.00  0.00    +0.072 C 
ATOM      7  C   UNL     1      45.057  80.950  40.270  0.00  0.00    +0.153 C 
ATOM      8  C   UNL     1      46.045  80.270  41.140  0.00  0.00    +0.182 C 
ATOM      9  C   UNL     1      46.310  78.835  40.792  0.00  0.00    +0.060 C 
ENDROOT
BRANCH   7  10
ATOM     10  C   UNL     1      45.700  81.903  39.299  0.00  0.00    +0.321 C 
ATOM     11  O   UNL     1      45.269  82.084  38.145  0.00  0.00    -0.250 OA
BRANCH  10  12
ATOM     12  O   UNL     1      46.821  82.619  39.692  0.00  0.00    -0.444 OA
ATOM     13  C   UNL     1      47.477  83.558  38.873  0.00  0.00    +0.256 C 
ENDBRANCH  10  12
ENDBRANCH   7  10
BRANCH   8  14
ATOM     14  O   UNL     1      47.320  80.931  41.132  0.00  0.00    -0.449 OA
BRANCH  14  15
ATOM     15  C   UNL     1      48.093  81.056  42.269  0.00  0.00    +0.341 C 
ATOM     16  O   UNL     1      48.369  80.005  42.902  0.00  0.00    -0.245 OA
BRANCH  15  17
ATOM     17  C   UNL     1      48.599  82.317  42.766  0.00  0.00    +0.076 A 
ATOM     18  C   UNL     1      49.936  82.569  42.891  0.00  0.00    +0.006 A 
ATOM     19  C   UNL     1      50.401  83.792  43.373  0.00  0.00    +0.000 A 
ATOM     20  C   UNL     1      49.505  84.764  43.730  0.00  0.00    +0.000 A 
ATOM     21  C   UNL     1      48.168  84.528  43.611  0.00  0.00    +0.000 A 
ATOM     22  C   UNL     1      47.705  83.298  43.127  0.00  0.00    +0.006 A 
ENDBRANCH  15  17
ENDBRANCH  14  15
ENDBRANCH   8  14
TORSDOF 5
