REMARK  Name = Codeine
REMARK  1 active torsions:
REMARK  status: ('A' for Active; 'I' for Inactive)
REMARK    1  A    between atoms: C_12  and  O_15
REMARK                            x       y       z     vdW  Elec       q    Type
REMARK                         _______ _______ _______ _____ _____    ______ ____
ROOT
ATOM      1  C   UNL     1      44.945  76.809  41.699  0.00  0.00    +0.090 C 
ATOM      2  N   UNL     1      45.286  78.058  41.145  0.00  0.00    -0.272 NA
ATOM      3  C   UNL     1      44.490  79.148  41.575  0.00  0.00    +0.073 C 
ATOM      4  C   UNL     1      44.881  80.479  41.061  0.00  0.00    +0.025 C 
ATOM      5  C   UNL     1      46.282  80.603  40.580  0.00  0.00    +0.067 C 
ATOM      6  C   UNL     1      46.806  79.337  39.927  0.00  0.00    +0.044 C 
ATOM      7  C   UNL     1      46.689  78.311  40.995  0.00  0.00    +0.066 C 
ATOM      8  C   UNL     1      47.430  78.604  42.251  0.00  0.00    +0.042 C 
ATOM      9  C   UNL     1      47.792  80.026  42.422  0.00  0.00    -0.022 A 
ATOM     10  C   UNL     1      47.245  80.930  41.621  0.00  0.00    +0.014 A 
ATOM     11  C   UNL     1      47.427  82.285  41.590  0.00  0.00    +0.168 A 
ATOM     12  C   UNL     1      48.313  82.767  42.540  0.00  0.00    +0.172 A 
ATOM     13  C   UNL     1      48.944  81.889  43.437  0.00  0.00    +0.040 A 
ATOM     14  C   UNL     1      48.677  80.509  43.372  0.00  0.00    -0.001 A 
ATOM     15  O   UNL     1      46.623  82.811  40.551  0.00  0.00    -0.473 OA
ATOM     16  C   UNL     1      46.562  81.739  39.640  0.00  0.00    +0.204 C 
ATOM     17  C   UNL     1      45.601  81.705  38.566  0.00  0.00    +0.214 C 
ATOM     18  C   UNL     1      45.319  80.264  38.184  0.00  0.00    +0.005 C 
ATOM     19  C   UNL     1      45.859  79.213  38.794  0.00  0.00    -0.027 C 
ATOM     20  O   UNL     1      44.458  82.458  38.667  0.00  0.00    -0.214 OA
ENDROOT
BRANCH  12  21
ATOM     21  O   UNL     1      48.537  84.135  42.558  0.00  0.00    -0.468 OA
ATOM     22  C   UNL     1      49.247  84.809  43.564  0.00  0.00    +0.253 C 
ENDBRANCH  12  21
TORSDOF 1
