REMARK  Name = Colchicine
REMARK  5 active torsions:
REMARK  status: ('A' for Active; 'I' for Inactive)
REMARK    1  A    between atoms: N_4  and  C_5
REMARK    2  A    between atoms: C_10  and  O_28
REMARK    3  A    between atoms: C_11  and  O_26
REMARK    4  A    between atoms: C_12  and  O_24
REMARK    5  A    between atoms: C_17  and  O_22
REMARK                            x       y       z     vdW  Elec       q    Type
REMARK                         _______ _______ _______ _____ _____    ______ ____
ROOT
ATOM      1  C   UNL     1      44.318  76.474  41.763  0.00  0.00    +0.118 C 
ATOM      2  C   UNL     1      45.693  76.918  42.160  0.00  0.00    +0.031 C 
ATOM      3  C   UNL     1      45.729  78.337  42.757  0.00  0.00    +0.029 C 
ATOM      4  C   UNL     1      46.021  79.248  41.591  0.00  0.00    -0.016 A 
ATOM      5  C   UNL     1      47.061  80.089  41.724  0.00  0.00    +0.036 A 
ATOM      6  C   UNL     1      47.409  80.924  40.666  0.00  0.00    +0.175 A 
ATOM      7  C   UNL     1      46.678  80.882  39.466  0.00  0.00    +0.206 A 
ATOM      8  C   UNL     1      45.614  80.022  39.324  0.00  0.00    +0.175 A 
ATOM      9  C   UNL     1      45.305  79.232  40.380  0.00  0.00    +0.033 A 
ATOM     10  C   UNL     1      44.112  78.446  40.099  0.00  0.00    +0.001 A 
ATOM     11  C   UNL     1      43.376  79.334  39.341  0.00  0.00    +0.003 A 
ATOM     12  C   UNL     1      42.374  78.978  38.471  0.00  0.00    +0.040 A 
ATOM     13  C   UNL     1      41.743  77.758  38.265  0.00  0.00    +0.177 A 
ATOM     14  C   UNL     1      42.067  76.574  38.886  0.00  0.00    +0.229 A 
ATOM     15  O   UNL     1      41.438  75.576  38.436  0.00  0.00    -0.283 OA
ATOM     16  C   UNL     1      42.960  76.265  39.920  0.00  0.00    +0.043 A 
ATOM     17  C   UNL     1      43.801  77.142  40.533  0.00  0.00    +0.001 A 
ENDROOT
BRANCH   1  21
ATOM     18  C   UNL     1      43.679  73.402  43.525  0.00  0.00    +0.096 C 
ATOM     19  C   UNL     1      43.249  74.373  42.482  0.00  0.00    +0.242 C 
ATOM     20  O   UNL     1      41.998  74.549  42.364  0.00  0.00    -0.273 OA
ATOM     21  N   UNL     1      44.196  75.050  41.679  0.00  0.00    -0.203 NA
ENDBRANCH   1  21
BRANCH  13  22
ATOM     22  O   UNL     1      40.691  77.730  37.351  0.00  0.00    -0.468 OA
ATOM     23  C   UNL     1      39.499  77.047  37.556  0.00  0.00    +0.253 C 
ENDBRANCH  13  22
BRANCH   8  24
ATOM     24  O   UNL     1      44.920  79.981  38.145  0.00  0.00    -0.468 OA
ATOM     25  C   UNL     1      43.861  80.910  37.866  0.00  0.00    +0.253 C 
ENDBRANCH   8  24
BRANCH   7  26
ATOM     26  O   UNL     1      46.974  81.685  38.378  0.00  0.00    -0.465 OA
ATOM     27  C   UNL     1      47.354  83.036  38.687  0.00  0.00    +0.253 C 
ENDBRANCH   7  26
BRANCH   6  28
ATOM     28  O   UNL     1      48.459  81.798  40.757  0.00  0.00    -0.468 OA
ATOM     29  C   UNL     1      49.437  81.752  41.762  0.00  0.00    +0.253 C 
ENDBRANCH   6  28
TORSDOF 5
