REMARK  Name = Colestipol
REMARK  11 active torsions:
REMARK  status: ('A' for Active; 'I' for Inactive)
REMARK    1  A    between atoms: C_2  and  C_4
REMARK    2  A    between atoms: C_6  and  C_7
REMARK    3  A    between atoms: C_7  and  N_8
REMARK    4  A    between atoms: N_8  and  C_9
REMARK    5  A    between atoms: C_9  and  C_10
REMARK    6  A    between atoms: C_10  and  N_11
REMARK    7  A    between atoms: N_11  and  C_12
REMARK    8  A    between atoms: C_12  and  C_13
REMARK    9  A    between atoms: C_13  and  N_14
REMARK   10  A    between atoms: N_14  and  C_15
REMARK   11  A    between atoms: C_15  and  C_16
REMARK                            x       y       z     vdW  Elec       q    Type
REMARK                         _______ _______ _______ _____ _____    ______ ____
ROOT
ATOM      1  C   UNL     1      42.557  77.982  40.019  0.00  0.00    +0.173 C 
ATOM      2  C   UNL     1      43.931  78.345  39.657  0.00  0.00    +0.161 C 
ATOM      3  O   UNL     1      42.943  78.429  38.677  0.00  0.00    -0.350 OA
ENDROOT
BRANCH   2   4
ATOM      4  C   UNL     1      44.496  79.607  40.254  0.00  0.00    +0.127 C 
ATOM      5 CL   UNL     1      44.894  80.731  38.952  0.00  0.00    -0.111 Cl
ENDBRANCH   2   4
TORSDOF 1
REMARK  Name = Colestipol
REMARK  11 active torsions:
REMARK  status: ('A' for Active; 'I' for Inactive)
REMARK    1  A    between atoms: C_2  and  C_4
REMARK    2  A    between atoms: C_6  and  C_7
REMARK    3  A    between atoms: C_7  and  N_8
REMARK    4  A    between atoms: N_8  and  C_9
REMARK    5  A    between atoms: C_9  and  C_10
REMARK    6  A    between atoms: C_10  and  N_11
REMARK    7  A    between atoms: N_11  and  C_12
REMARK    8  A    between atoms: C_12  and  C_13
REMARK    9  A    between atoms: C_13  and  N_14
REMARK   10  A    between atoms: N_14  and  C_15
REMARK   11  A    between atoms: C_15  and  C_16
REMARK                            x       y       z     vdW  Elec       q    Type
REMARK                         _______ _______ _______ _____ _____    ______ ____
ROOT
ATOM      1  N   UNL     1      43.511  78.783  40.453  0.00  0.00    -0.215 NA
ENDROOT
BRANCH   1   2
ATOM      2  C   UNL     1      44.743  78.983  41.207  0.00  0.00    +0.108 C 
BRANCH   2   3
ATOM      3  C   UNL     1      45.856  79.395  40.349  0.00  0.00    +0.108 C 
BRANCH   3   4
ATOM      4  N   UNL     1      45.746  80.709  39.735  0.00  0.00    -0.215 NA
BRANCH   4   5
ATOM      5  C   UNL     1      46.609  81.650  40.451  0.00  0.00    +0.109 C 
BRANCH   5   6
ATOM      6  C   UNL     1      46.846  82.884  39.605  0.00  0.00    +0.128 C 
ATOM      7  N   UNL     1      47.739  83.827  40.289  0.00  0.00    -0.130 NA
ENDBRANCH   5   6
ENDBRANCH   4   5
ENDBRANCH   3   4
ENDBRANCH   2   3
ENDBRANCH   1   2
BRANCH   1   8
ATOM      8  C   UNL     1      43.710  77.624  39.631  0.00  0.00    +0.108 C 
BRANCH   8   9
ATOM      9  C   UNL     1      42.460  76.963  39.186  0.00  0.00    +0.108 C 
BRANCH   9  10
ATOM     10  N   UNL     1      41.608  77.794  38.400  0.00  0.00    -0.215 NA
BRANCH  10  11
ATOM     11  C   UNL     1      40.507  76.906  37.966  0.00  0.00    +0.109 C 
BRANCH  11  12
ATOM     12  C   UNL     1      39.795  77.468  36.783  0.00  0.00    +0.128 C 
ATOM     13  N   UNL     1      38.680  76.593  36.401  0.00  0.00    -0.130 NA
ENDBRANCH  11  12
ENDBRANCH  10  11
ENDBRANCH   9  10
ENDBRANCH   8   9
ENDBRANCH   1   8
TORSDOF 10
