REMARK  Name = Colesevelam
REMARK  22 active torsions:
REMARK  status: ('A' for Active; 'I' for Inactive)
REMARK    1  A    between atoms: C_2  and  C_3
REMARK    2  A    between atoms: C_3  and  C_4
REMARK    3  A    between atoms: C_4  and  C_5
REMARK    4  A    between atoms: C_5  and  C_6
REMARK    5  A    between atoms: C_6  and  C_7
REMARK    6  A    between atoms: C_7  and  C_8
REMARK    7  A    between atoms: C_8  and  C_9
REMARK    8  A    between atoms: C_9  and  C_10
REMARK    9  A    between atoms: C_10  and  N_11
REMARK   10  A    between atoms: N_11  and  C_12
REMARK   11  A    between atoms: C_12  and  C_13
REMARK   12  A    between atoms: N_16  and  C_19
REMARK   13  A    between atoms: C_19  and  C_20
REMARK   14  A    between atoms: C_20  and  C_21
REMARK   15  A    between atoms: C_21  and  C_22
REMARK   16  A    between atoms: C_22  and  C_23
REMARK   17  A    between atoms: C_23  and  C_24
REMARK   18  A    between atoms: C_24  and  N_25
REMARK   19  A    between atoms: N_25  and  C_26
REMARK   20  A    between atoms: C_26  and  C_27
REMARK   21  A    between atoms: C_30  and  C_31
REMARK   22  A    between atoms: C_34  and  C_36
REMARK                            x       y       z     vdW  Elec       q    Type
REMARK                         _______ _______ _______ _____ _____    ______ ____
ROOT
ATOM      1  C   UNL     1      47.328  80.039  39.955  0.00  0.00    +0.000 C 
ENDROOT
BRANCH   1   2
ATOM      2  C   UNL     1      48.248  80.801  40.876  0.00  0.00    +0.000 C 
BRANCH   2   3
ATOM      3  C   UNL     1      48.139  82.287  40.670  0.00  0.00    +0.000 C 
BRANCH   3   4
ATOM      4  C   UNL     1      49.083  83.059  41.572  0.00  0.00    +0.000 C 
BRANCH   4   5
ATOM      5  C   UNL     1      48.808  82.810  43.013  0.00  0.00    +0.000 C 
BRANCH   5   7
ATOM      6  C   UNL     1      49.657  85.053  43.773  0.00  0.00    +0.000 C 
ATOM      7  C   UNL     1      49.729  83.571  43.934  0.00  0.00    +0.000 C 
ENDBRANCH   5   7
ENDBRANCH   4   5
ENDBRANCH   3   4
ENDBRANCH   2   3
ENDBRANCH   1   2
BRANCH   1   8
ATOM      8  C   UNL     1      45.916  80.449  40.221  0.00  0.00    +0.001 C 
BRANCH   8   9
ATOM      9  C   UNL     1      44.917  79.727  39.358  0.00  0.00    +0.019 C 
BRANCH   9  10
ATOM     10  C   UNL     1      44.957  78.228  39.556  0.00  0.00    +0.089 C 
BRANCH  10  11
ATOM     11  N   UNL     1      44.672  77.842  40.904  0.00  0.00    -0.213 NA
BRANCH  11  12
ATOM     12  C   UNL     1      43.346  78.044  41.358  0.00  0.00    +0.115 C 
BRANCH  12  13
ATOM     13  C   UNL     1      42.302  77.178  40.811  0.00  0.00    -0.007 C 
ATOM     14  C   UNL     1      42.414  76.194  39.965  0.00  0.00    -0.003 C 
ENDBRANCH  12  13
ENDBRANCH  11  12
ENDBRANCH  10  11
ENDBRANCH   9  10
ENDBRANCH   8   9
ENDBRANCH   1   8
TORSDOF 11
REMARK  Name = Colesevelam
REMARK  22 active torsions:
REMARK  status: ('A' for Active; 'I' for Inactive)
REMARK    1  A    between atoms: C_2  and  C_3
REMARK    2  A    between atoms: C_3  and  C_4
REMARK    3  A    between atoms: C_4  and  C_5
REMARK    4  A    between atoms: C_5  and  C_6
REMARK    5  A    between atoms: C_6  and  C_7
REMARK    6  A    between atoms: C_7  and  C_8
REMARK    7  A    between atoms: C_8  and  C_9
REMARK    8  A    between atoms: C_9  and  C_10
REMARK    9  A    between atoms: C_10  and  N_11
REMARK   10  A    between atoms: N_11  and  C_12
REMARK   11  A    between atoms: C_12  and  C_13
REMARK   12  A    between atoms: N_16  and  C_19
REMARK   13  A    between atoms: C_19  and  C_20
REMARK   14  A    between atoms: C_20  and  C_21
REMARK   15  A    between atoms: C_21  and  C_22
REMARK   16  A    between atoms: C_22  and  C_23
REMARK   17  A    between atoms: C_23  and  C_24
REMARK   18  A    between atoms: C_24  and  N_25
REMARK   19  A    between atoms: N_25  and  C_26
REMARK   20  A    between atoms: C_26  and  C_27
REMARK   21  A    between atoms: C_30  and  C_31
REMARK   22  A    between atoms: C_34  and  C_36
REMARK                            x       y       z     vdW  Elec       q    Type
REMARK                         _______ _______ _______ _____ _____    ______ ____
ROOT
ATOM      1  C   UNL     1      46.338  81.760  40.564  0.00  0.00    -0.002 C 
ENDROOT
BRANCH   1   2
ATOM      2  C   UNL     1      47.476  82.487  41.184  0.00  0.00    -0.022 C 
BRANCH   2   3
ATOM      3  C   UNL     1      48.251  81.722  42.213  0.00  0.00    -0.073 C 
BRANCH   3   5
ATOM      4  C   UNL     1      50.033  81.942  43.810  0.00  0.00    -0.096 C 
ATOM      5  N   UNL     1      49.318  82.583  42.699  0.00  0.00    +0.386 N 
ATOM      6  C   UNL     1      48.769  83.842  43.134  0.00  0.00    -0.096 C 
ATOM      7  C   UNL     1      50.318  82.762  41.651  0.00  0.00    -0.096 C 
ENDBRANCH   3   5
ENDBRANCH   2   3
ENDBRANCH   1   2
BRANCH   1   8
ATOM      8  C   UNL     1      45.279  81.306  41.498  0.00  0.00    +0.001 C 
BRANCH   8   9
ATOM      9  C   UNL     1      44.175  80.583  40.767  0.00  0.00    +0.019 C 
BRANCH   9  10
ATOM     10  C   UNL     1      44.627  79.358  40.028  0.00  0.00    +0.089 C 
BRANCH  10  11
ATOM     11  N   UNL     1      43.447  78.782  39.382  0.00  0.00    -0.213 NA
BRANCH  11  12
ATOM     12  C   UNL     1      43.755  77.600  38.627  0.00  0.00    +0.115 C 
BRANCH  12  13
ATOM     13  C   UNL     1      44.153  76.449  39.493  0.00  0.00    -0.007 C 
ATOM     14  C   UNL     1      43.463  75.323  39.478  0.00  0.00    -0.003 C 
ENDBRANCH  12  13
ENDBRANCH  11  12
ENDBRANCH  10  11
ENDBRANCH   9  10
ENDBRANCH   8   9
ENDBRANCH   1   8
TORSDOF 9
REMARK  Name = Colesevelam
REMARK  22 active torsions:
REMARK  status: ('A' for Active; 'I' for Inactive)
REMARK    1  A    between atoms: C_2  and  C_3
REMARK    2  A    between atoms: C_3  and  C_4
REMARK    3  A    between atoms: C_4  and  C_5
REMARK    4  A    between atoms: C_5  and  C_6
REMARK    5  A    between atoms: C_6  and  C_7
REMARK    6  A    between atoms: C_7  and  C_8
REMARK    7  A    between atoms: C_8  and  C_9
REMARK    8  A    between atoms: C_9  and  C_10
REMARK    9  A    between atoms: C_10  and  N_11
REMARK   10  A    between atoms: N_11  and  C_12
REMARK   11  A    between atoms: C_12  and  C_13
REMARK   12  A    between atoms: N_16  and  C_19
REMARK   13  A    between atoms: C_19  and  C_20
REMARK   14  A    between atoms: C_20  and  C_21
REMARK   15  A    between atoms: C_21  and  C_22
REMARK   16  A    between atoms: C_22  and  C_23
REMARK   17  A    between atoms: C_23  and  C_24
REMARK   18  A    between atoms: C_24  and  N_25
REMARK   19  A    between atoms: N_25  and  C_26
REMARK   20  A    between atoms: C_26  and  C_27
REMARK   21  A    between atoms: C_30  and  C_31
REMARK   22  A    between atoms: C_34  and  C_36
REMARK                            x       y       z     vdW  Elec       q    Type
REMARK                         _______ _______ _______ _____ _____    ______ ____
ROOT
ATOM      1  C   UNL     1      45.150  79.588  40.897  0.00  0.00    -0.003 C 
ATOM      2  C   UNL     1      46.349  80.042  40.709  0.00  0.00    -0.006 C 
ENDROOT
BRANCH   2   3
ATOM      3  C   UNL     1      47.160  80.795  41.695  0.00  0.00    +0.135 C 
ATOM      4  N   UNL     1      47.459  82.100  41.101  0.00  0.00    -0.126 NA
ENDBRANCH   2   3
TORSDOF 1
REMARK  Name = Colesevelam
REMARK  22 active torsions:
REMARK  status: ('A' for Active; 'I' for Inactive)
REMARK    1  A    between atoms: C_2  and  C_3
REMARK    2  A    between atoms: C_3  and  C_4
REMARK    3  A    between atoms: C_4  and  C_5
REMARK    4  A    between atoms: C_5  and  C_6
REMARK    5  A    between atoms: C_6  and  C_7
REMARK    6  A    between atoms: C_7  and  C_8
REMARK    7  A    between atoms: C_8  and  C_9
REMARK    8  A    between atoms: C_9  and  C_10
REMARK    9  A    between atoms: C_10  and  N_11
REMARK   10  A    between atoms: N_11  and  C_12
REMARK   11  A    between atoms: C_12  and  C_13
REMARK   12  A    between atoms: N_16  and  C_19
REMARK   13  A    between atoms: C_19  and  C_20
REMARK   14  A    between atoms: C_20  and  C_21
REMARK   15  A    between atoms: C_21  and  C_22
REMARK   16  A    between atoms: C_22  and  C_23
REMARK   17  A    between atoms: C_23  and  C_24
REMARK   18  A    between atoms: C_24  and  N_25
REMARK   19  A    between atoms: N_25  and  C_26
REMARK   20  A    between atoms: C_26  and  C_27
REMARK   21  A    between atoms: C_30  and  C_31
REMARK   22  A    between atoms: C_34  and  C_36
REMARK                            x       y       z     vdW  Elec       q    Type
REMARK                         _______ _______ _______ _____ _____    ______ ____
ROOT
ATOM      1  C   UNL     1      46.053  79.538  40.756  0.00  0.00    +0.173 C 
ATOM      2  C   UNL     1      46.358  80.985  40.703  0.00  0.00    +0.161 C 
ATOM      3  O   UNL     1      47.032  80.052  39.907  0.00  0.00    -0.350 OA
ENDROOT
BRANCH   2   4
ATOM      4  C   UNL     1      47.144  81.555  41.877  0.00  0.00    +0.127 C 
ATOM      5 CL   UNL     1      48.715  80.727  41.992  0.00  0.00    -0.111 Cl
ENDBRANCH   2   4
TORSDOF 1
REMARK  Name = Colesevelam
REMARK  22 active torsions:
REMARK  status: ('A' for Active; 'I' for Inactive)
REMARK    1  A    between atoms: C_2  and  C_3
REMARK    2  A    between atoms: C_3  and  C_4
REMARK    3  A    between atoms: C_4  and  C_5
REMARK    4  A    between atoms: C_5  and  C_6
REMARK    5  A    between atoms: C_6  and  C_7
REMARK    6  A    between atoms: C_7  and  C_8
REMARK    7  A    between atoms: C_8  and  C_9
REMARK    8  A    between atoms: C_9  and  C_10
REMARK    9  A    between atoms: C_10  and  N_11
REMARK   10  A    between atoms: N_11  and  C_12
REMARK   11  A    between atoms: C_12  and  C_13
REMARK   12  A    between atoms: N_16  and  C_19
REMARK   13  A    between atoms: C_19  and  C_20
REMARK   14  A    between atoms: C_20  and  C_21
REMARK   15  A    between atoms: C_21  and  C_22
REMARK   16  A    between atoms: C_22  and  C_23
REMARK   17  A    between atoms: C_23  and  C_24
REMARK   18  A    between atoms: C_24  and  N_25
REMARK   19  A    between atoms: N_25  and  C_26
REMARK   20  A    between atoms: C_26  and  C_27
REMARK   21  A    between atoms: C_30  and  C_31
REMARK   22  A    between atoms: C_34  and  C_36
REMARK                            x       y       z     vdW  Elec       q    Type
REMARK                         _______ _______ _______ _____ _____    ______ ____
ROOT
ATOM      1 CL   UNL     1      46.183  80.169  40.981  0.00  0.00    +0.000 Cl
ENDROOT
TORSDOF 0
REMARK  Name = Colesevelam
REMARK  22 active torsions:
REMARK  status: ('A' for Active; 'I' for Inactive)
REMARK    1  A    between atoms: C_2  and  C_3
REMARK    2  A    between atoms: C_3  and  C_4
REMARK    3  A    between atoms: C_4  and  C_5
REMARK    4  A    between atoms: C_5  and  C_6
REMARK    5  A    between atoms: C_6  and  C_7
REMARK    6  A    between atoms: C_7  and  C_8
REMARK    7  A    between atoms: C_8  and  C_9
REMARK    8  A    between atoms: C_9  and  C_10
REMARK    9  A    between atoms: C_10  and  N_11
REMARK   10  A    between atoms: N_11  and  C_12
REMARK   11  A    between atoms: C_12  and  C_13
REMARK   12  A    between atoms: N_16  and  C_19
REMARK   13  A    between atoms: C_19  and  C_20
REMARK   14  A    between atoms: C_20  and  C_21
REMARK   15  A    between atoms: C_21  and  C_22
REMARK   16  A    between atoms: C_22  and  C_23
REMARK   17  A    between atoms: C_23  and  C_24
REMARK   18  A    between atoms: C_24  and  N_25
REMARK   19  A    between atoms: N_25  and  C_26
REMARK   20  A    between atoms: C_26  and  C_27
REMARK   21  A    between atoms: C_30  and  C_31
REMARK   22  A    between atoms: C_34  and  C_36
REMARK                            x       y       z     vdW  Elec       q    Type
REMARK                         _______ _______ _______ _____ _____    ______ ____
ROOT
ATOM      1 CL   UNL     1      46.633  80.656  41.179  0.00  0.00    +0.000 Cl
ENDROOT
TORSDOF 0
