REMARK  Name = Colforsin_daropate_hci
REMARK  8 active torsions:
REMARK  status: ('A' for Active; 'I' for Inactive)
REMARK    1  A    between atoms: C_2  and  O_4
REMARK    2  A    between atoms: O_4  and  C_5
REMARK    3  A    between atoms: C_6  and  O_29
REMARK    4  A    between atoms: C_16  and  C_21
REMARK    5  A    between atoms: O_29  and  C_30
REMARK    6  A    between atoms: C_30  and  C_32
REMARK    7  A    between atoms: C_32  and  C_33
REMARK    8  A    between atoms: C_33  and  N_34
REMARK                            x       y       z     vdW  Elec       q    Type
REMARK                         _______ _______ _______ _____ _____    ______ ____
ROOT
ATOM      1  C   UNL     1      46.862  80.348  42.490  0.00  0.00    +0.236 C 
ATOM      2  C   UNL     1      46.762  78.918  41.982  0.00  0.00    +0.211 C 
ATOM      3  C   UNL     1      45.493  78.890  41.160  0.00  0.00    +0.049 C 
ATOM      4  C   UNL     1      44.943  77.533  40.907  0.00  0.00    +0.004 C 
ATOM      5  C   UNL     1      43.514  77.673  40.410  0.00  0.00    +0.003 C 
ATOM      6  C   UNL     1      43.133  79.101  40.200  0.00  0.00    +0.033 C 
ATOM      7  C   UNL     1      44.142  79.860  39.375  0.00  0.00    +0.155 C 
ATOM      8  C   UNL     1      45.541  79.796  39.973  0.00  0.00    +0.066 C 
ATOM      9  C   UNL     1      45.890  81.202  40.390  0.00  0.00    +0.205 C 
ATOM     10  C   UNL     1      47.046  81.317  41.323  0.00  0.00    +0.165 C 
ATOM     11  O   UNL     1      48.224  81.016  40.695  0.00  0.00    -0.352 OA
ATOM     12  C   UNL     1      48.654  81.923  39.767  0.00  0.00    +0.118 C 
ATOM     13  C   UNL     1      47.596  82.538  38.925  0.00  0.00    +0.098 C 
ATOM     14  C   UNL     1      46.231  82.040  39.182  0.00  0.00    +0.183 C 
ATOM     15  O   UNL     1      45.366  82.331  38.376  0.00  0.00    -0.293 OA
ATOM     16  C   UNL     1      49.543  83.006  40.398  0.00  0.00    +0.035 C 
ATOM     17  C   UNL     1      47.025  82.700  41.945  0.00  0.00    +0.037 C 
ATOM     18  O   UNL     1      44.780  81.799  41.031  0.00  0.00    -0.215 OA
ATOM     19  C   UNL     1      46.463  79.393  38.876  0.00  0.00    +0.006 C 
ATOM     20  O   UNL     1      44.106  79.317  38.088  0.00  0.00    -0.223 OA
ATOM     21  C   UNL     1      45.703  76.671  39.970  0.00  0.00    +0.000 C 
ATOM     22  C   UNL     1      44.868  76.805  42.258  0.00  0.00    +0.000 C 
ENDROOT
BRANCH  12  23
ATOM     23  C   UNL     1      49.585  81.177  38.840  0.00  0.00    +0.001 C 
ATOM     24  C   UNL     1      50.164  81.875  37.850  0.00  0.00    -0.003 C 
ENDBRANCH  12  23
BRANCH   1  25
ATOM     25  O   UNL     1      47.825  80.519  43.479  0.00  0.00    -0.446 OA
BRANCH  25  27
ATOM     26  C   UNL     1      48.611  81.093  45.808  0.00  0.00    +0.121 C 
ATOM     27  C   UNL     1      47.552  80.922  44.778  0.00  0.00    +0.318 C 
ATOM     28  O   UNL     1      46.362  81.156  45.111  0.00  0.00    -0.250 OA
ENDBRANCH  25  27
ENDBRANCH   1  25
BRANCH   2  29
ATOM     29  O   UNL     1      47.905  78.480  41.349  0.00  0.00    -0.448 OA
BRANCH  29  30
ATOM     30  C   UNL     1      48.657  77.446  41.875  0.00  0.00    +0.318 C 
ATOM     31  O   UNL     1      48.285  76.906  42.946  0.00  0.00    -0.250 OA
BRANCH  30  32
ATOM     32  C   UNL     1      49.894  76.938  41.231  0.00  0.00    +0.127 C 
BRANCH  32  33
ATOM     33  C   UNL     1      50.471  75.821  42.042  0.00  0.00    +0.084 C 
BRANCH  33  34
ATOM     34  N   UNL     1      49.570  74.705  42.185  0.00  0.00    -0.270 NA
ATOM     35  C   UNL     1      50.208  73.679  42.979  0.00  0.00    +0.090 C 
ATOM     36  C   UNL     1      49.281  74.091  40.882  0.00  0.00    +0.090 C 
ENDBRANCH  33  34
ENDBRANCH  32  33
ENDBRANCH  30  32
ENDBRANCH  29  30
ENDBRANCH   2  29
TORSDOF 8
REMARK  Name = Colforsin_daropate_hci
REMARK  8 active torsions:
REMARK  status: ('A' for Active; 'I' for Inactive)
REMARK    1  A    between atoms: C_2  and  O_4
REMARK    2  A    between atoms: O_4  and  C_5
REMARK    3  A    between atoms: C_6  and  O_29
REMARK    4  A    between atoms: C_16  and  C_21
REMARK    5  A    between atoms: O_29  and  C_30
REMARK    6  A    between atoms: C_30  and  C_32
REMARK    7  A    between atoms: C_32  and  C_33
REMARK    8  A    between atoms: C_33  and  N_34
REMARK                            x       y       z     vdW  Elec       q    Type
REMARK                         _______ _______ _______ _____ _____    ______ ____
ROOT
ATOM      1 CL   UNL     1      47.479  78.520  41.260  0.00  0.00    +0.000 Cl
ENDROOT
TORSDOF 0
