REMARK  Name = Colistin
REMARK  28 active torsions:
REMARK  status: ('A' for Active; 'I' for Inactive)
REMARK    1  A    between atoms: C_2  and  C_3
REMARK    2  A    between atoms: C_3  and  C_5
REMARK    3  A    between atoms: C_5  and  C_6
REMARK    4  A    between atoms: C_6  and  C_7
REMARK    5  A    between atoms: C_7  and  C_8
REMARK    6  A    between atoms: N_10  and  C_11
REMARK    7  A    between atoms: C_11  and  C_12
REMARK    8  A    between atoms: C_11  and  C_15
REMARK    9  A    between atoms: C_12  and  C_13
REMARK   10  A    between atoms: N_17  and  C_18
REMARK   11  A    between atoms: C_18  and  C_19
REMARK   12  A    between atoms: C_18  and  C_22
REMARK   13  A    between atoms: N_24  and  C_25
REMARK   14  A    between atoms: C_25  and  C_26
REMARK   15  A    between atoms: C_25  and  C_29
REMARK   16  A    between atoms: C_26  and  C_27
REMARK   17  A    between atoms: N_31  and  C_32
REMARK   18  A    between atoms: C_38  and  C_79
REMARK   19  A    between atoms: C_42  and  C_76
REMARK   20  A    between atoms: C_46  and  C_73
REMARK   21  A    between atoms: C_50  and  C_69
REMARK   22  A    between atoms: C_54  and  C_65
REMARK   23  A    between atoms: C_58  and  C_62
REMARK   24  A    between atoms: C_62  and  C_63
REMARK   25  A    between atoms: C_65  and  C_66
REMARK   26  A    between atoms: C_69  and  C_70
REMARK   27  A    between atoms: C_73  and  C_74
REMARK   28  A    between atoms: C_76  and  C_77
REMARK                            x       y       z     vdW  Elec       q    Type
REMARK                         _______ _______ _______ _____ _____    ______ ____
ROOT
ATOM      1  C   UNL     1      42.806  78.088  40.332  0.00  0.00    +0.175 C 
ATOM      2  C   UNL     1      43.638  76.805  40.358  0.00  0.00    +0.055 C 
ATOM      3  C   UNL     1      43.471  76.159  41.724  0.00  0.00    +0.117 C 
ATOM      4  N   UNL     1      44.268  74.995  41.900  0.00  0.00    -0.204 NA
ATOM      5  C   UNL     1      45.546  74.792  42.378  0.00  0.00    +0.264 C 
ATOM      6  O   UNL     1      46.359  74.211  41.536  0.00  0.00    -0.271 OA
ATOM      7  C   UNL     1      46.174  75.113  43.684  0.00  0.00    +0.203 C 
ATOM      8  N   UNL     1      47.598  74.909  43.599  0.00  0.00    -0.194 NA
ATOM      9  C   UNL     1      48.678  75.671  43.974  0.00  0.00    +0.262 C 
ATOM     10  O   UNL     1      49.382  76.138  42.975  0.00  0.00    -0.271 OA
ATOM     11  C   UNL     1      49.212  76.070  45.280  0.00  0.00    +0.174 C 
ATOM     12  N   UNL     1      50.658  76.374  45.180  0.00  0.00    -0.196 NA
ATOM     13  C   UNL     1      51.180  77.550  44.631  0.00  0.00    +0.262 C 
ATOM     14  O   UNL     1      52.239  77.416  43.926  0.00  0.00    -0.271 OA
ATOM     15  C   UNL     1      50.637  78.921  44.783  0.00  0.00    +0.174 C 
ATOM     16  N   UNL     1      51.178  79.812  43.797  0.00  0.00    -0.196 NA
ATOM     17  C   UNL     1      50.419  80.635  42.895  0.00  0.00    +0.262 C 
ATOM     18  O   UNL     1      50.700  80.530  41.670  0.00  0.00    -0.271 OA
ATOM     19  C   UNL     1      49.378  81.554  43.309  0.00  0.00    +0.173 C 
ATOM     20  N   UNL     1      48.239  81.736  42.437  0.00  0.00    -0.196 NA
ATOM     21  C   UNL     1      47.920  81.403  41.145  0.00  0.00    +0.262 C 
ATOM     22  O   UNL     1      47.070  80.402  41.075  0.00  0.00    -0.271 OA
ATOM     23  C   UNL     1      48.269  81.861  39.815  0.00  0.00    +0.173 C 
ATOM     24  N   UNL     1      47.310  81.538  38.751  0.00  0.00    -0.196 NA
ATOM     25  C   UNL     1      45.979  81.334  38.636  0.00  0.00    +0.262 C 
ATOM     26  O   UNL     1      45.294  82.411  38.280  0.00  0.00    -0.271 OA
ATOM     27  C   UNL     1      45.041  80.180  38.804  0.00  0.00    +0.174 C 
ATOM     28  N   UNL     1      44.310  80.191  40.035  0.00  0.00    -0.196 NA
ATOM     29  C   UNL     1      43.649  79.201  40.758  0.00  0.00    +0.262 C 
ATOM     30  O   UNL     1      43.806  79.279  42.040  0.00  0.00    -0.271 OA
ENDROOT
BRANCH   7  31
ATOM     31  C   UNL     1      45.705  76.344  44.343  0.00  0.00    +0.181 C 
ATOM     32  C   UNL     1      46.056  76.516  45.790  0.00  0.00    +0.038 C 
ATOM     33  O   UNL     1      44.297  76.487  44.277  0.00  0.00    -0.221 OA
ENDBRANCH   7  31
BRANCH   1  36
ATOM     34  C   UNL     1      41.052  77.560  38.566  0.00  0.00    +0.262 C 
ATOM     35  O   UNL     1      41.470  76.410  38.101  0.00  0.00    -0.271 OA
ATOM     36  N   UNL     1      42.126  78.318  39.074  0.00  0.00    -0.196 NA
BRANCH  34  37
ATOM     37  C   UNL     1      39.639  77.888  38.492  0.00  0.00    +0.174 C 
BRANCH  37  40
ATOM     38  C   UNL     1      38.882  75.611  39.294  0.00  0.00    +0.264 C 
ATOM     39  O   UNL     1      39.403  75.850  40.388  0.00  0.00    -0.271 OA
ATOM     40  N   UNL     1      38.943  76.568  38.259  0.00  0.00    -0.196 NA
BRANCH  38  41
ATOM     41  C   UNL     1      38.140  74.322  39.000  0.00  0.00    +0.203 C 
BRANCH  41  44
ATOM     42  C   UNL     1      37.651  73.329  36.789  0.00  0.00    +0.262 C 
ATOM     43  O   UNL     1      38.459  72.390  37.125  0.00  0.00    -0.271 OA
ATOM     44  N   UNL     1      37.466  74.346  37.728  0.00  0.00    -0.194 NA
BRANCH  42  45
ATOM     45  C   UNL     1      37.032  73.201  35.465  0.00  0.00    +0.174 C 
BRANCH  45  48
ATOM     46  C   UNL     1      34.979  71.713  35.443  0.00  0.00    +0.242 C 
ATOM     47  O   UNL     1      34.204  72.683  35.616  0.00  0.00    -0.273 OA
ATOM     48  N   UNL     1      36.358  71.933  35.355  0.00  0.00    -0.198 NA
BRANCH  46  49
ATOM     49  C   UNL     1      34.463  70.314  35.320  0.00  0.00    +0.087 C 
BRANCH  49  50
ATOM     50  C   UNL     1      33.552  70.069  34.204  0.00  0.00    +0.010 C 
BRANCH  50  51
ATOM     51  C   UNL     1      33.037  68.699  34.011  0.00  0.00    +0.001 C 
BRANCH  51  52
ATOM     52  C   UNL     1      31.642  68.514  33.571  0.00  0.00    +0.000 C 
ATOM     53  C   UNL     1      30.867  69.733  33.171  0.00  0.00    +0.000 C 
BRANCH  52  55
ATOM     54  C   UNL     1      30.296  67.249  31.960  0.00  0.00    +0.000 C 
ATOM     55  C   UNL     1      31.700  67.638  32.293  0.00  0.00    +0.000 C 
ENDBRANCH  52  55
ENDBRANCH  51  52
ENDBRANCH  50  51
ENDBRANCH  49  50
ENDBRANCH  46  49
ENDBRANCH  45  48
BRANCH  45  56
ATOM     56  C   UNL     1      38.111  73.312  34.389  0.00  0.00    +0.052 C 
BRANCH  56  57
ATOM     57  C   UNL     1      38.774  74.655  34.525  0.00  0.00    +0.112 C 
ATOM     58  N   UNL     1      39.616  74.900  33.374  0.00  0.00    -0.131 NA
ENDBRANCH  56  57
ENDBRANCH  45  56
ENDBRANCH  42  45
ENDBRANCH  41  44
BRANCH  41  59
ATOM     59  C   UNL     1      37.254  73.923  40.084  0.00  0.00    +0.181 C 
ATOM     60  C   UNL     1      38.045  73.852  41.401  0.00  0.00    +0.038 C 
ATOM     61  O   UNL     1      36.728  72.630  39.916  0.00  0.00    -0.221 OA
ENDBRANCH  41  59
ENDBRANCH  38  41
ENDBRANCH  37  40
BRANCH  37  62
ATOM     62  C   UNL     1      39.099  78.834  37.494  0.00  0.00    +0.052 C 
BRANCH  62  63
ATOM     63  C   UNL     1      38.597  78.354  36.187  0.00  0.00    +0.112 C 
ATOM     64  N   UNL     1      39.717  77.827  35.394  0.00  0.00    -0.131 NA
ENDBRANCH  62  63
ENDBRANCH  37  62
ENDBRANCH  34  37
ENDBRANCH   1  36
BRANCH  27  65
ATOM     65  C   UNL     1      45.507  78.903  38.226  0.00  0.00    +0.052 C 
BRANCH  65  66
ATOM     66  C   UNL     1      44.738  77.669  38.461  0.00  0.00    +0.112 C 
ATOM     67  N   UNL     1      43.658  78.005  39.409  0.00  0.00    -0.131 NA
ENDBRANCH  65  66
ENDBRANCH  27  65
BRANCH  23  68
ATOM     68  C   UNL     1      48.709  83.294  39.639  0.00  0.00    +0.031 C 
BRANCH  68  69
ATOM     69  C   UNL     1      48.539  84.233  40.743  0.00  0.00    +0.002 C 
ATOM     70  C   UNL     1      47.212  84.722  41.150  0.00  0.00    +0.000 C 
ATOM     71  C   UNL     1      49.111  83.519  41.999  0.00  0.00    +0.000 C 
ENDBRANCH  68  69
ENDBRANCH  23  68
BRANCH  19  72
ATOM     72  C   UNL     1      49.885  82.816  43.939  0.00  0.00    +0.031 C 
BRANCH  72  73
ATOM     73  C   UNL     1      51.191  83.331  43.443  0.00  0.00    +0.002 C 
ATOM     74  C   UNL     1      51.145  84.637  42.698  0.00  0.00    +0.000 C 
ATOM     75  C   UNL     1      51.813  82.234  42.547  0.00  0.00    +0.000 C 
ENDBRANCH  72  73
ENDBRANCH  19  72
BRANCH  15  76
ATOM     76  C   UNL     1      50.839  79.344  46.197  0.00  0.00    +0.052 C 
BRANCH  76  77
ATOM     77  C   UNL     1      49.603  79.595  46.991  0.00  0.00    +0.112 C 
ATOM     78  N   UNL     1      49.789  80.761  47.839  0.00  0.00    -0.131 NA
ENDBRANCH  76  77
ENDBRANCH  15  76
BRANCH  11  79
ATOM     79  C   UNL     1      49.118  75.026  46.357  0.00  0.00    +0.052 C 
BRANCH  79  80
ATOM     80  C   UNL     1      50.448  74.284  46.356  0.00  0.00    +0.112 C 
ATOM     81  N   UNL     1      51.192  74.447  45.150  0.00  0.00    -0.131 NA
ENDBRANCH  79  80
ENDBRANCH  11  79
TORSDOF 28
