REMARK  Name = Conivaptan
REMARK  4 active torsions:
REMARK  status: ('A' for Active; 'I' for Inactive)
REMARK    1  A    between atoms: C_16  and  C_18
REMARK    2  A    between atoms: C_21  and  N_24
REMARK    3  A    between atoms: C_25  and  C_27
REMARK    4  A    between atoms: C_32  and  C_33
REMARK                            x       y       z     vdW  Elec       q    Type
REMARK                         _______ _______ _______ _____ _____    ______ ____
ROOT
ATOM      1  C   UNL     1      45.024  80.030  39.661  0.00  0.00    +0.054 A 
ATOM      2  C   UNL     1      45.604  81.234  39.341  0.00  0.00    +0.006 A 
ATOM      3  C   UNL     1      46.919  81.523  39.732  0.00  0.00    +0.017 A 
ATOM      4  C   UNL     1      47.665  80.641  40.431  0.00  0.00    +0.074 A 
ATOM      5  C   UNL     1      47.078  79.411  40.760  0.00  0.00    +0.017 A 
ATOM      6  C   UNL     1      45.797  79.132  40.379  0.00  0.00    +0.006 A 
ENDROOT
BRANCH   1  22
ATOM      7  C   UNL     1      39.019  73.590  37.867  0.00  0.00    +0.074 C 
ATOM      8  C   UNL     1      39.984  74.713  38.081  0.00  0.00    +0.139 A 
ATOM      9  N   UNL     1      40.736  74.803  39.196  0.00  0.00    -0.229 NA
ATOM     10  C   UNL     1      41.466  75.920  39.032  0.00  0.00    +0.097 A 
ATOM     11  C   UNL     1      41.186  76.528  37.839  0.00  0.00    +0.080 A 
ATOM     12  N   UNL     1      40.241  75.743  37.250  0.00  0.00    -0.233 NA
ATOM     13  C   UNL     1      41.713  77.745  37.239  0.00  0.00    +0.069 C 
ATOM     14  C   UNL     1      43.186  78.017  37.493  0.00  0.00    +0.105 C 
ATOM     15  N   UNL     1      43.398  78.357  38.899  0.00  0.00    -0.255 N 
ATOM     16  C   UNL     1      43.301  77.425  39.982  0.00  0.00    +0.056 A 
ATOM     17  C   UNL     1      44.184  77.697  40.999  0.00  0.00    +0.015 A 
ATOM     18  C   UNL     1      44.204  76.895  42.112  0.00  0.00    +0.001 A 
ATOM     19  C   UNL     1      43.338  75.832  42.182  0.00  0.00    +0.000 A 
ATOM     20  C   UNL     1      42.457  75.548  41.177  0.00  0.00    +0.003 A 
ATOM     21  C   UNL     1      42.422  76.341  40.054  0.00  0.00    +0.033 A 
ATOM     22  C   UNL     1      43.663  79.673  39.285  0.00  0.00    +0.253 C 
ATOM     23  O   UNL     1      42.811  80.558  39.328  0.00  0.00    -0.270 OA
ENDBRANCH   1  22
BRANCH   4  24
ATOM     24  N   UNL     1      48.978  80.891  40.847  0.00  0.00    -0.175 NA
ATOM     25  C   UNL     1      49.428  81.369  42.093  0.00  0.00    +0.269 C 
ATOM     26  O   UNL     1      48.747  81.197  43.118  0.00  0.00    -0.268 OA
BRANCH  25  27
ATOM     27  C   UNL     1      50.693  82.073  42.224  0.00  0.00    +0.055 A 
ATOM     28  C   UNL     1      51.867  81.428  41.849  0.00  0.00    +0.005 A 
ATOM     29  C   UNL     1      53.077  82.109  41.980  0.00  0.00    +0.000 A 
ATOM     30  C   UNL     1      53.131  83.409  42.473  0.00  0.00    +0.000 A 
ATOM     31  C   UNL     1      51.971  84.028  42.836  0.00  0.00    +0.000 A 
ATOM     32  C   UNL     1      50.751  83.351  42.708  0.00  0.00    +0.004 A 
BRANCH  32  33
ATOM     33  C   UNL     1      49.534  84.026  43.099  0.00  0.00    +0.000 A 
ATOM     34  C   UNL     1      48.574  84.284  42.163  0.00  0.00    +0.000 A 
ATOM     35  C   UNL     1      47.421  84.940  42.586  0.00  0.00    +0.000 A 
ATOM     36  C   UNL     1      47.215  85.330  43.882  0.00  0.00    +0.000 A 
ATOM     37  C   UNL     1      48.202  85.053  44.794  0.00  0.00    +0.000 A 
ATOM     38  C   UNL     1      49.368  84.399  44.407  0.00  0.00    +0.000 A 
ENDBRANCH  32  33
ENDBRANCH  25  27
ENDBRANCH   4  24
TORSDOF 4
