REMARK  Name = Convallatoxin
REMARK  4 active torsions:
REMARK  status: ('A' for Active; 'I' for Inactive)
REMARK    1  A    between atoms: C_6  and  O_8
REMARK    2  A    between atoms: O_8  and  C_9
REMARK    3  A    between atoms: C_12  and  C_35
REMARK    4  A    between atoms: C_17  and  C_28
REMARK                            x       y       z     vdW  Elec       q    Type
REMARK                         _______ _______ _______ _____ _____    ______ ____
ROOT
ATOM      1  C   UNL     1      42.429  78.183  39.438  0.00  0.00    +0.120 C 
ATOM      2  C   UNL     1      43.030  77.429  40.612  0.00  0.00    +0.030 C 
ATOM      3  C   UNL     1      43.818  78.397  41.428  0.00  0.00    +0.012 C 
ATOM      4  C   UNL     1      44.975  79.024  40.619  0.00  0.00    +0.084 C 
ATOM      5  C   UNL     1      45.683  79.917  41.562  0.00  0.00    +0.012 C 
ATOM      6  C   UNL     1      46.937  79.174  42.053  0.00  0.00    +0.001 C 
ATOM      7  C   UNL     1      47.809  80.177  42.734  0.00  0.00    +0.003 C 
ATOM      8  C   UNL     1      48.491  81.012  41.634  0.00  0.00    +0.029 C 
ATOM      9  C   UNL     1      48.685  82.382  42.196  0.00  0.00    +0.024 C 
ATOM     10  C   UNL     1      48.080  83.379  41.210  0.00  0.00    +0.007 C 
ATOM     11  C   UNL     1      47.929  82.551  39.947  0.00  0.00    +0.031 C 
ATOM     12  C   UNL     1      47.508  81.194  40.466  0.00  0.00    +0.127 C 
ATOM     13  C   UNL     1      46.136  81.237  41.086  0.00  0.00    +0.029 C 
ATOM     14  C   UNL     1      45.112  81.890  40.208  0.00  0.00    +0.005 C 
ATOM     15  C   UNL     1      44.879  81.002  39.037  0.00  0.00    +0.031 C 
ATOM     16  C   UNL     1      44.356  79.652  39.422  0.00  0.00    +0.135 C 
ATOM     17  C   UNL     1      42.822  79.661  39.517  0.00  0.00    +0.060 C 
ATOM     18  O   UNL     1      44.598  78.824  38.295  0.00  0.00    -0.225 OA
ATOM     19  O   UNL     1      47.674  80.277  39.469  0.00  0.00    -0.226 OA
ATOM     20  C   UNL     1      49.725  80.297  41.202  0.00  0.00    +0.003 C 
ENDROOT
BRANCH   9  21
ATOM     21  C   UNL     1      50.057  82.757  42.566  0.00  0.00    +0.005 C 
ATOM     22  C   UNL     1      51.122  82.538  41.777  0.00  0.00    +0.077 C 
ATOM     23  C   UNL     1      52.334  83.004  42.387  0.00  0.00    +0.341 C 
ATOM     24  O   UNL     1      53.510  82.948  41.905  0.00  0.00    -0.245 OA
ATOM     25  O   UNL     1      51.971  83.529  43.604  0.00  0.00    -0.441 OA
ATOM     26  C   UNL     1      50.590  83.371  43.800  0.00  0.00    +0.231 C 
ENDBRANCH   9  21
BRANCH   4  27
ATOM     27  C   UNL     1      45.812  77.824  40.260  0.00  0.00    +0.209 C 
ATOM     28  O   UNL     1      46.756  77.856  39.499  0.00  0.00    -0.288 OA
ENDBRANCH   4  27
BRANCH   1  29
ATOM     29  O   UNL     1      41.084  78.002  39.329  0.00  0.00    -0.331 OA
BRANCH  29  35
ATOM     30  C   UNL     1      41.265  75.902  35.849  0.00  0.00    +0.035 C 
ATOM     31  C   UNL     1      39.975  76.480  36.386  0.00  0.00    +0.151 C 
ATOM     32  C   UNL     1      39.070  75.415  36.946  0.00  0.00    +0.212 C 
ATOM     33  C   UNL     1      38.682  75.768  38.381  0.00  0.00    +0.220 C 
ATOM     34  C   UNL     1      39.976  75.872  39.161  0.00  0.00    +0.241 C 
ATOM     35  C   UNL     1      40.826  76.929  38.485  0.00  0.00    +0.269 C 
ATOM     36  O   UNL     1      40.195  77.452  37.357  0.00  0.00    -0.328 OA
ATOM     37  O   UNL     1      40.575  74.613  39.126  0.00  0.00    -0.215 OA
ATOM     38  O   UNL     1      37.874  74.763  38.886  0.00  0.00    -0.217 OA
ATOM     39  O   UNL     1      39.751  74.193  36.914  0.00  0.00    -0.218 OA
ENDBRANCH  29  35
ENDBRANCH   1  29
TORSDOF 4
