REMARK  Name = Cortisone_Acetate
REMARK  4 active torsions:
REMARK  status: ('A' for Active; 'I' for Inactive)
REMARK    1  A    between atoms: C_2  and  O_4
REMARK    2  A    between atoms: O_4  and  C_5
REMARK    3  A    between atoms: C_5  and  C_6
REMARK    4  A    between atoms: C_6  and  C_8
REMARK                            x       y       z     vdW  Elec       q    Type
REMARK                         _______ _______ _______ _____ _____    ______ ____
ROOT
ATOM      1  C   UNL     1      48.048  82.417  41.538  0.00  0.00    +0.181 C 
ATOM      2  C   UNL     1      48.197  81.544  42.766  0.00  0.00    +0.038 C 
ATOM      3  C   UNL     1      47.492  80.255  42.514  0.00  0.00    +0.003 C 
ATOM      4  C   UNL     1      46.684  80.540  41.280  0.00  0.00    +0.004 C 
ATOM      5  C   UNL     1      47.604  81.429  40.486  0.00  0.00    +0.039 C 
ATOM      6  C   UNL     1      46.705  82.072  39.449  0.00  0.00    +0.067 C 
ATOM      7  C   UNL     1      45.525  81.214  39.148  0.00  0.00    +0.151 C 
ATOM      8  O   UNL     1      44.532  81.819  38.778  0.00  0.00    -0.296 OA
ATOM      9  C   UNL     1      45.550  79.724  39.288  0.00  0.00    +0.061 C 
ATOM     10  C   UNL     1      46.355  79.352  40.467  0.00  0.00    +0.008 C 
ATOM     11  C   UNL     1      45.716  78.305  41.354  0.00  0.00    +0.005 C 
ATOM     12  C   UNL     1      45.282  77.192  40.429  0.00  0.00    +0.022 C 
ATOM     13  C   UNL     1      44.121  77.760  39.663  0.00  0.00    -0.042 C 
ATOM     14  C   UNL     1      43.066  76.987  39.392  0.00  0.00    +0.029 C 
ATOM     15  C   UNL     1      41.981  77.601  38.648  0.00  0.00    +0.173 C 
ATOM     16  O   UNL     1      40.814  77.239  38.829  0.00  0.00    -0.291 OA
ATOM     17  C   UNL     1      42.264  78.670  37.663  0.00  0.00    +0.069 C 
ATOM     18  C   UNL     1      43.683  79.174  37.775  0.00  0.00    +0.012 C 
ATOM     19  C   UNL     1      44.154  79.155  39.230  0.00  0.00    +0.022 C 
ATOM     20  C   UNL     1      43.165  79.968  40.022  0.00  0.00    +0.004 C 
ATOM     21  C   UNL     1      48.760  80.746  39.846  0.00  0.00    +0.003 C 
ATOM     22  O   UNL     1      47.085  83.410  41.731  0.00  0.00    -0.218 OA
ENDROOT
BRANCH   1  23
ATOM     23  C   UNL     1      49.374  83.016  41.287  0.00  0.00    +0.222 C 
ATOM     24  O   UNL     1      50.187  82.439  40.592  0.00  0.00    -0.290 OA
BRANCH  23  25
ATOM     25  C   UNL     1      49.702  84.329  41.893  0.00  0.00    +0.275 C 
BRANCH  25  26
ATOM     26  O   UNL     1      50.908  84.249  42.659  0.00  0.00    -0.440 OA
BRANCH  26  28
ATOM     27  C   UNL     1      52.398  85.145  44.425  0.00  0.00    +0.121 C 
ATOM     28  C   UNL     1      51.122  85.141  43.684  0.00  0.00    +0.318 C 
ATOM     29  O   UNL     1      50.229  85.955  43.992  0.00  0.00    -0.250 OA
ENDBRANCH  26  28
ENDBRANCH  25  26
ENDBRANCH  23  25
ENDBRANCH   1  23
TORSDOF 4
