REMARK  Name = cortisone
REMARK  2 active torsions:
REMARK  status: ('A' for Active; 'I' for Inactive)
REMARK    1  A    between atoms: C_20  and  C_21
REMARK    2  A    between atoms: C_21  and  C_23
REMARK                            x       y       z     vdW  Elec       q    Type
REMARK                         _______ _______ _______ _____ _____    ______ ____
ROOT
ATOM      1  C   UNL     1      45.164  80.309  41.640  0.00  0.00    +0.004 C 
ATOM      2  C   UNL     1      46.456  80.729  40.933  0.00  0.00    +0.022 C 
ATOM      3  C   UNL     1      46.845  79.544  40.072  0.00  0.00    +0.012 C 
ATOM      4  C   UNL     1      45.557  78.999  39.435  0.00  0.00    +0.069 C 
ATOM      5  C   UNL     1      44.935  80.139  38.712  0.00  0.00    +0.173 C 
ATOM      6  O   UNL     1      43.995  79.961  37.885  0.00  0.00    -0.291 OA
ATOM      7  C   UNL     1      45.389  81.506  38.933  0.00  0.00    +0.029 C 
ATOM      8  C   UNL     1      46.119  81.817  39.988  0.00  0.00    -0.042 C 
ATOM      9  C   UNL     1      46.608  83.183  40.264  0.00  0.00    +0.022 C 
ATOM     10  C   UNL     1      46.419  83.378  41.761  0.00  0.00    +0.005 C 
ATOM     11  C   UNL     1      47.367  82.474  42.500  0.00  0.00    +0.008 C 
ATOM     12  C   UNL     1      47.458  81.081  41.967  0.00  0.00    +0.061 C 
ATOM     13  C   UNL     1      48.860  80.703  41.632  0.00  0.00    +0.151 C 
ATOM     14  O   UNL     1      49.220  80.207  40.591  0.00  0.00    -0.296 OA
ATOM     15  C   UNL     1      49.890  80.969  42.682  0.00  0.00    +0.067 C 
ATOM     16  C   UNL     1      49.695  82.322  43.270  0.00  0.00    +0.039 C 
ATOM     17  C   UNL     1      48.735  83.084  42.412  0.00  0.00    +0.004 C 
ATOM     18  C   UNL     1      48.854  84.463  42.970  0.00  0.00    +0.003 C 
ATOM     19  C   UNL     1      50.355  84.630  43.026  0.00  0.00    +0.038 C 
ATOM     20  C   UNL     1      50.897  83.234  43.251  0.00  0.00    +0.180 C 
ATOM     21  O   UNL     1      51.473  83.262  44.558  0.00  0.00    -0.218 OA
ATOM     22  C   UNL     1      49.238  82.251  44.721  0.00  0.00    +0.003 C 
ENDROOT
BRANCH  20  23
ATOM     23  C   UNL     1      51.960  82.869  42.324  0.00  0.00    +0.211 C 
ATOM     24  O   UNL     1      52.722  81.959  42.608  0.00  0.00    -0.291 OA
BRANCH  23  25
ATOM     25  C   UNL     1      52.186  83.546  41.032  0.00  0.00    +0.248 C 
ATOM     26  O   UNL     1      53.527  83.395  40.605  0.00  0.00    -0.212 OA
ENDBRANCH  23  25
ENDBRANCH  20  23
TORSDOF 2
