REMARK  Name = Cotinine
REMARK  1 active torsions:
REMARK  status: ('A' for Active; 'I' for Inactive)
REMARK    1  A    between atoms: C_3  and  C_8
REMARK                            x       y       z     vdW  Elec       q    Type
REMARK                         _______ _______ _______ _____ _____    ______ ____
ROOT
ATOM      1  C   UNL     1      49.215  79.839  41.616  0.00  0.00    +0.115 C 
ATOM      2  N   UNL     1      48.670  81.148  41.404  0.00  0.00    -0.276 N 
ATOM      3  C   UNL     1      48.372  81.739  40.090  0.00  0.00    +0.100 C 
ATOM      4  C   UNL     1      48.710  83.199  40.359  0.00  0.00    +0.034 C 
ATOM      5  C   UNL     1      48.194  83.406  41.767  0.00  0.00    +0.087 C 
ATOM      6  C   UNL     1      48.341  82.081  42.415  0.00  0.00    +0.226 C 
ATOM      7  O   UNL     1      48.198  81.815  43.659  0.00  0.00    -0.275 OA
ENDROOT
BRANCH   3   8
ATOM      8  C   UNL     1      46.999  81.485  39.685  0.00  0.00    +0.015 A 
ATOM      9  C   UNL     1      46.326  82.159  38.719  0.00  0.00    +0.096 A 
ATOM     10  N   UNL     1      45.031  81.851  38.406  0.00  0.00    -0.243 NA
ATOM     11  C   UNL     1      44.363  80.889  39.017  0.00  0.00    +0.099 A 
ATOM     12  C   UNL     1      44.989  80.168  40.006  0.00  0.00    +0.020 A 
ATOM     13  C   UNL     1      46.291  80.460  40.338  0.00  0.00    +0.000 A 
ENDBRANCH   3   8
TORSDOF 1
