REMARK  Name = Crizotinib
REMARK  5 active torsions:
REMARK  status: ('A' for Active; 'I' for Inactive)
REMARK    1  A    between atoms: C_2  and  C_3
REMARK    2  A    between atoms: C_2  and  O_12
REMARK    3  A    between atoms: O_12  and  C_13
REMARK    4  A    between atoms: C_17  and  C_19
REMARK    5  A    between atoms: N_21  and  C_24
REMARK                            x       y       z     vdW  Elec       q    Type
REMARK                         _______ _______ _______ _____ _____    ______ ____
ROOT
ATOM      1  C   UNL     1      47.165  81.215  39.828  0.00  0.00    +0.173 A 
ATOM      2  C   UNL     1      46.859  82.119  38.842  0.00  0.00    +0.204 A 
ATOM      3  N   UNL     1      45.726  81.980  38.148  0.00  0.00    -0.223 NA
ATOM      4  C   UNL     1      44.875  80.978  38.389  0.00  0.00    +0.101 A 
ATOM      5  C   UNL     1      45.115  80.032  39.364  0.00  0.00    +0.025 A 
ATOM      6  C   UNL     1      46.300  80.187  40.081  0.00  0.00    +0.042 A 
ATOM      7  N   UNL     1      47.735  83.220  38.530  0.00  0.00    -0.104 NA
ENDROOT
BRANCH   5   8
ATOM      8  C   UNL     1      44.200  78.936  39.636  0.00  0.00    +0.041 A 
ATOM      9  C   UNL     1      42.900  78.857  39.202  0.00  0.00    +0.097 A 
ATOM     10  N   UNL     1      42.340  77.702  39.637  0.00  0.00    -0.251 N 
ATOM     11  N   UNL     1      43.271  77.051  40.341  0.00  0.00    -0.168 NA
ATOM     12  C   UNL     1      44.421  77.786  40.355  0.00  0.00    +0.122 A 
BRANCH  10  13
ATOM     13  C   UNL     1      40.989  77.240  39.397  0.00  0.00    +0.108 C 
ATOM     14  C   UNL     1      40.756  76.826  37.984  0.00  0.00    +0.043 C 
ATOM     15  C   UNL     1      41.438  75.526  37.625  0.00  0.00    +0.091 C 
ATOM     16  N   UNL     1      41.082  74.482  38.559  0.00  0.00    -0.218 NA
ATOM     17  C   UNL     1      40.127  74.942  39.536  0.00  0.00    +0.091 C 
ATOM     18  C   UNL     1      40.616  76.125  40.322  0.00  0.00    +0.043 C 
ENDBRANCH  10  13
ENDBRANCH   5   8
BRANCH   1  19
ATOM     19  O   UNL     1      48.338  81.406  40.506  0.00  0.00    -0.472 OA
BRANCH  19  21
ATOM     20  C   UNL     1      49.019  80.158  42.381  0.00  0.00    +0.052 C 
ATOM     21  C   UNL     1      48.564  81.506  41.875  0.00  0.00    +0.190 C 
BRANCH  21  22
ATOM     22  C   UNL     1      49.471  82.601  42.277  0.00  0.00    +0.041 A 
ATOM     23  C   UNL     1      48.966  83.589  43.090  0.00  0.00    +0.058 A 
ATOM     24  C   UNL     1      49.805  84.618  43.481  0.00  0.00    +0.014 A 
ATOM     25  C   UNL     1      51.120  84.646  43.061  0.00  0.00    +0.031 A 
ATOM     26  C   UNL     1      51.595  83.639  42.245  0.00  0.00    +0.150 A 
ATOM     27  C   UNL     1      50.788  82.601  41.837  0.00  0.00    +0.085 A 
ATOM     28 CL   UNL     1      51.384  81.306  40.792  0.00  0.00    -0.080 Cl
ATOM     29  F   UNL     1      52.877  83.648  41.824  0.00  0.00    -0.203 F 
ATOM     30 CL   UNL     1      47.290  83.598  43.647  0.00  0.00    -0.082 Cl
ENDBRANCH  21  22
ENDBRANCH  19  21
ENDBRANCH   1  19
TORSDOF 5
