REMARK  Name = Croconazole
REMARK  5 active torsions:
REMARK  status: ('A' for Active; 'I' for Inactive)
REMARK    1  A    between atoms: C_2  and  C_3
REMARK    2  A    between atoms: C_2  and  N_18
REMARK    3  A    between atoms: C_8  and  O_9
REMARK    4  A    between atoms: O_9  and  C_10
REMARK    5  A    between atoms: C_10  and  C_11
REMARK                            x       y       z     vdW  Elec       q    Type
REMARK                         _______ _______ _______ _____ _____    ______ ____
ROOT
ATOM      1  C   UNL     1      45.318  78.590  40.827  0.00  0.00    +0.050 A 
ATOM      2  C   UNL     1      44.363  77.576  41.044  0.00  0.00    +0.004 A 
ATOM      3  C   UNL     1      44.073  77.103  42.307  0.00  0.00    +0.000 A 
ATOM      4  C   UNL     1      44.719  77.621  43.408  0.00  0.00    +0.003 A 
ATOM      5  C   UNL     1      45.653  78.613  43.210  0.00  0.00    +0.037 A 
ATOM      6  C   UNL     1      45.959  79.104  41.925  0.00  0.00    +0.140 A 
ENDROOT
BRANCH   1   8
ATOM      7  C   UNL     1      46.042  78.168  38.566  0.00  0.00    +0.019 C 
ATOM      8  C   UNL     1      45.691  79.003  39.503  0.00  0.00    +0.068 C 
BRANCH   8   9
ATOM      9  N   UNL     1      45.667  80.391  39.138  0.00  0.00    -0.286 N 
ATOM     10  C   UNL     1      46.575  81.362  39.255  0.00  0.00    +0.102 A 
ATOM     11  C   UNL     1      46.105  82.556  38.683  0.00  0.00    +0.120 A 
ATOM     12  N   UNL     1      44.902  82.279  38.225  0.00  0.00    -0.222 NA
ATOM     13  C   UNL     1      44.630  81.006  38.486  0.00  0.00    +0.183 A 
ENDBRANCH   8   9
ENDBRANCH   1   8
BRANCH   6  14
ATOM     14  O   UNL     1      46.904  80.093  41.778  0.00  0.00    -0.471 OA
BRANCH  14  15
ATOM     15  C   UNL     1      47.805  80.329  42.810  0.00  0.00    +0.232 C 
BRANCH  15  16
ATOM     16  C   UNL     1      48.663  81.514  42.594  0.00  0.00    +0.022 A 
ATOM     17  C   UNL     1      48.116  82.744  42.921  0.00  0.00    +0.011 A 
ATOM     18  C   UNL     1      48.819  83.921  42.763  0.00  0.00    +0.057 A 
ATOM     19  C   UNL     1      50.102  83.868  42.267  0.00  0.00    +0.011 A 
ATOM     20  C   UNL     1      50.663  82.666  41.937  0.00  0.00    +0.001 A 
ATOM     21  C   UNL     1      49.930  81.507  42.108  0.00  0.00    -0.001 A 
ATOM     22 CL   UNL     1      48.161  85.492  43.166  0.00  0.00    -0.082 Cl
ENDBRANCH  15  16
ENDBRANCH  14  15
ENDBRANCH   6  14
TORSDOF 5
