REMARK  Name = Crofelemer
REMARK  5 active torsions:
REMARK  status: ('A' for Active; 'I' for Inactive)
REMARK    1  A    between atoms: O_2  and  C_3
REMARK    2  A    between atoms: C_8  and  C_9
REMARK    3  A    between atoms: C_9  and  N_10
REMARK    4  A    between atoms: C_11  and  C_13
REMARK    5  A    between atoms: C_16  and  C_18
REMARK                            x       y       z     vdW  Elec       q    Type
REMARK                         _______ _______ _______ _____ _____    ______ ____
ROOT
ATOM      1  N   UNL     1      44.747  80.022  39.042  0.00  0.00    -0.195 NA
ATOM      2  C   UNL     1      45.502  81.199  39.027  0.00  0.00    +0.286 C 
ATOM      3  O   UNL     1      45.456  81.981  38.066  0.00  0.00    -0.267 OA
ENDROOT
BRANCH   2   4
ATOM      4  C   UNL     1      46.377  81.535  40.172  0.00  0.00    +0.178 A 
ATOM      5  N   UNL     1      46.338  80.926  41.358  0.00  0.00    -0.072 NA
ATOM      6  O   UNL     1      47.239  81.448  42.150  0.00  0.00    -0.353 OA
ATOM      7  C   UNL     1      47.903  82.391  41.570  0.00  0.00    +0.177 A 
ATOM      8  C   UNL     1      47.370  82.479  40.278  0.00  0.00    +0.067 A 
BRANCH   7   9
ATOM      9  C   UNL     1      48.983  83.241  42.054  0.00  0.00    +0.037 A 
ATOM     10  C   UNL     1      48.829  84.066  43.149  0.00  0.00    +0.003 A 
ATOM     11  C   UNL     1      49.812  84.888  43.649  0.00  0.00    +0.000 A 
ATOM     12  C   UNL     1      51.032  84.897  43.027  0.00  0.00    +0.000 A 
ATOM     13  C   UNL     1      51.239  84.083  41.919  0.00  0.00    +0.000 A 
ATOM     14  C   UNL     1      50.226  83.271  41.445  0.00  0.00    +0.003 A 
ENDBRANCH   7   9
ENDBRANCH   2   4
BRANCH   1  15
ATOM     15  C   UNL     1      43.617  79.726  38.262  0.00  0.00    +0.145 C 
BRANCH  15  21
ATOM     16  C   UNL     1      43.014  77.684  39.623  0.00  0.00    +0.136 A 
ATOM     17  C   UNL     1      42.237  76.534  39.791  0.00  0.00    +0.037 A 
ATOM     18  C   UNL     1      41.236  76.221  38.905  0.00  0.00    +0.003 A 
ATOM     19  C   UNL     1      41.014  77.069  37.844  0.00  0.00    -0.000 A 
ATOM     20  C   UNL     1      41.787  78.193  37.692  0.00  0.00    +0.000 A 
ATOM     21  C   UNL     1      42.817  78.538  38.581  0.00  0.00    +0.033 A 
BRANCH  16  23
ATOM     22  C   UNL     1      44.610  76.880  41.310  0.00  0.00    +0.252 C 
ATOM     23  O   UNL     1      43.989  77.910  40.581  0.00  0.00    -0.472 OA
ENDBRANCH  16  23
ENDBRANCH  15  21
ENDBRANCH   1  15
TORSDOF 5
