REMARK  Name = Cromoglicate
REMARK  8 active torsions:
REMARK  status: ('A' for Active; 'I' for Inactive)
REMARK    1  A    between atoms: C_5  and  O_7
REMARK    2  A    between atoms: O_7  and  C_8
REMARK    3  A    between atoms: C_8  and  C_9
REMARK    4  A    between atoms: C_9  and  C_10
REMARK    5  A    between atoms: C_10  and  O_11
REMARK    6  A    between atoms: O_11  and  C_12
REMARK    7  A    between atoms: C_21  and  C_23
REMARK    8  A    between atoms: C_30  and  C_32
REMARK                            x       y       z     vdW  Elec       q    Type
REMARK                         _______ _______ _______ _____ _____    ______ ____
ROOT
ATOM      1  C   UNL     1      45.363  81.126  39.847  0.00  0.00    +0.239 C 
ATOM      2  O   UNL     1      45.694  81.806  38.648  0.00  0.00    -0.215 OA
ENDROOT
BRANCH   1   3
ATOM      3  C   UNL     1      45.295  79.646  39.571  0.00  0.00    +0.242 C 
BRANCH   3   4
ATOM      4  O   UNL     1      44.032  79.178  39.692  0.00  0.00    -0.472 OA
BRANCH   4   9
ATOM      5  C   UNL     1      43.019  76.202  41.632  0.00  0.00    +0.006 A 
ATOM      6  C   UNL     1      41.973  75.784  40.855  0.00  0.00    +0.038 A 
ATOM      7  C   UNL     1      41.597  76.477  39.694  0.00  0.00    +0.152 A 
ATOM      8  C   UNL     1      42.330  77.593  39.377  0.00  0.00    +0.107 A 
ATOM      9  C   UNL     1      43.414  78.067  40.141  0.00  0.00    +0.145 A 
ATOM     10  C   UNL     1      43.738  77.347  41.268  0.00  0.00    +0.037 A 
ATOM     11  C   UNL     1      41.970  78.291  38.230  0.00  0.00    +0.205 A 
ATOM     12  O   UNL     1      42.618  79.311  37.915  0.00  0.00    -0.286 OA
ATOM     13  C   UNL     1      40.909  77.798  37.513  0.00  0.00    +0.087 A 
ATOM     14  C   UNL     1      40.228  76.668  37.904  0.00  0.00    +0.228 A 
ATOM     15  O   UNL     1      40.586  76.035  38.981  0.00  0.00    -0.446 OA
BRANCH  14  16
ATOM     16  C   UNL     1      39.082  76.177  37.087  0.00  0.00    +0.422 C 
ATOM     17  O   UNL     1      38.664  76.815  36.115  0.00  0.00    -0.237 OA
ATOM     18  O   UNL     1      38.478  74.978  37.431  0.00  0.00    -0.237 OA
ENDBRANCH  14  16
ENDBRANCH   4   9
ENDBRANCH   3   4
ENDBRANCH   1   3
BRANCH   1  19
ATOM     19  C   UNL     1      46.371  81.451  40.927  0.00  0.00    +0.242 C 
BRANCH  19  20
ATOM     20  O   UNL     1      46.853  82.744  40.730  0.00  0.00    -0.472 OA
BRANCH  20  21
ATOM     21  C   UNL     1      47.422  83.432  41.792  0.00  0.00    +0.145 A 
ATOM     22  C   UNL     1      46.705  84.195  42.672  0.00  0.00    +0.037 A 
ATOM     23  C   UNL     1      47.368  84.845  43.703  0.00  0.00    +0.006 A 
ATOM     24  C   UNL     1      48.749  84.704  43.816  0.00  0.00    +0.038 A 
ATOM     25  C   UNL     1      49.485  83.940  42.938  0.00  0.00    +0.152 A 
ATOM     26  C   UNL     1      48.806  83.304  41.922  0.00  0.00    +0.107 A 
ATOM     27  C   UNL     1      49.530  82.537  41.038  0.00  0.00    +0.205 A 
ATOM     28  O   UNL     1      48.931  81.944  40.099  0.00  0.00    -0.286 OA
ATOM     29  C   UNL     1      50.888  82.462  41.235  0.00  0.00    +0.087 A 
ATOM     30  C   UNL     1      51.536  83.112  42.264  0.00  0.00    +0.228 A 
ATOM     31  O   UNL     1      50.790  83.831  43.077  0.00  0.00    -0.446 OA
BRANCH  30  32
ATOM     32  C   UNL     1      52.975  83.012  42.444  0.00  0.00    +0.422 C 
ATOM     33  O   UNL     1      53.479  83.385  43.528  0.00  0.00    -0.237 OA
ATOM     34  O   UNL     1      53.816  82.520  41.464  0.00  0.00    -0.237 OA
ENDBRANCH  30  32
ENDBRANCH  20  21
ENDBRANCH  19  20
ENDBRANCH   1  19
TORSDOF 8
