REMARK  Name = Cyclofenil
REMARK  6 active torsions:
REMARK  status: ('A' for Active; 'I' for Inactive)
REMARK    1  A    between atoms: C_2  and  O_4
REMARK    2  A    between atoms: O_4  and  C_5
REMARK    3  A    between atoms: C_8  and  C_11
REMARK    4  A    between atoms: C_11  and  C_18
REMARK    5  A    between atoms: C_21  and  O_24
REMARK    6  A    between atoms: O_24  and  C_25
REMARK                            x       y       z     vdW  Elec       q    Type
REMARK                         _______ _______ _______ _____ _____    ______ ____
ROOT
ATOM      1  C   UNL     1      48.049  81.502  41.438  0.00  0.00    -0.008 C 
ATOM      2  C   UNL     1      48.211  82.700  41.999  0.00  0.00    -0.044 C 
ATOM      3  C   UNL     1      49.604  83.206  42.267  0.00  0.00    +0.022 C 
ATOM      4  C   UNL     1      49.521  84.727  42.077  0.00  0.00    +0.004 C 
ATOM      5  C   UNL     1      48.687  85.310  43.190  0.00  0.00    +0.001 C 
ATOM      6  C   UNL     1      47.593  84.340  43.641  0.00  0.00    +0.004 C 
ATOM      7  C   UNL     1      47.130  83.629  42.360  0.00  0.00    +0.022 C 
ENDROOT
BRANCH   1  11
ATOM      8  C   UNL     1      50.696  78.356  42.518  0.00  0.00    +0.148 A 
ATOM      9  C   UNL     1      50.069  78.328  41.295  0.00  0.00    +0.038 A 
ATOM     10  C   UNL     1      49.212  79.375  40.946  0.00  0.00    +0.003 A 
ATOM     11  C   UNL     1      48.954  80.433  41.746  0.00  0.00    -0.000 A 
ATOM     12  C   UNL     1      49.606  80.437  42.987  0.00  0.00    +0.003 A 
ATOM     13  C   UNL     1      50.461  79.421  43.369  0.00  0.00    +0.038 A 
BRANCH   8  14
ATOM     14  O   UNL     1      51.567  77.316  42.899  0.00  0.00    -0.424 OA
BRANCH  14  16
ATOM     15  C   UNL     1      53.764  76.106  42.649  0.00  0.00    +0.122 C 
ATOM     16  C   UNL     1      52.761  77.137  42.234  0.00  0.00    +0.322 C 
ATOM     17  O   UNL     1      53.010  77.873  41.246  0.00  0.00    -0.250 OA
ENDBRANCH  14  16
ENDBRANCH   8  14
ENDBRANCH   1  11
BRANCH   1  18
ATOM     18  C   UNL     1      46.856  81.283  40.609  0.00  0.00    -0.000 A 
ATOM     19  C   UNL     1      46.521  82.005  39.499  0.00  0.00    +0.003 A 
ATOM     20  C   UNL     1      45.404  81.738  38.702  0.00  0.00    +0.038 A 
ATOM     21  C   UNL     1      44.611  80.679  39.080  0.00  0.00    +0.148 A 
ATOM     22  C   UNL     1      44.921  79.931  40.195  0.00  0.00    +0.038 A 
ATOM     23  C   UNL     1      46.020  80.216  40.955  0.00  0.00    +0.003 A 
BRANCH  21  24
ATOM     24  O   UNL     1      43.492  80.400  38.294  0.00  0.00    -0.424 OA
BRANCH  24  25
ATOM     25  C   UNL     1      42.565  79.431  38.660  0.00  0.00    +0.322 C 
ATOM     26  O   UNL     1      42.708  78.851  39.746  0.00  0.00    -0.250 OA
ATOM     27  C   UNL     1      41.431  79.106  37.757  0.00  0.00    +0.122 C 
ENDBRANCH  24  25
ENDBRANCH  21  24
ENDBRANCH   1  18
TORSDOF 6
