REMARK  Name = Cyclacillin
REMARK  3 active torsions:
REMARK  status: ('A' for Active; 'I' for Inactive)
REMARK    1  A    between atoms: CA_3  and  C_20
REMARK    2  A    between atoms: CA_7  and  N_10
REMARK    3  A    between atoms: C_11  and  C_13
REMARK                            x       y       z     vdW  Elec       q    Type
REMARK                         _______ _______ _______ _____ _____    ______ ____
ROOT
ATOM      1  C   UNL     1      46.663  83.321  42.957  0.00  0.00    +0.013 C 
ATOM      2  C   UNL     1      47.768  82.513  42.361  0.00  0.00    +0.068 C 
ATOM      3  CA  UNL     1      48.000  82.903  40.952  0.00  0.00    +0.189 C 
ATOM      4  N   UNL     1      46.981  82.441  40.116  0.00  0.00    -0.259 N 
ATOM      5  C   UNL     1      46.057  81.451  40.712  0.00  0.00    +0.153 C 
ATOM      6  S   UNL     1      47.087  80.823  42.063  0.00  0.00    -0.118 S 
ATOM      7  CA  UNL     1      46.137  80.812  39.383  0.00  0.00    +0.200 C 
ATOM      8  C   UNL     1      46.171  82.265  38.974  0.00  0.00    +0.249 C 
ATOM      9  O   UNL     1      45.736  83.025  38.092  0.00  0.00    -0.273 OA
ATOM     10  C   UNL     1      48.998  82.451  43.211  0.00  0.00    +0.013 C 
ENDROOT
BRANCH   7  11
ATOM     11  N   UNL     1      44.902  80.196  38.898  0.00  0.00    -0.194 NA
ATOM     12  C   UNL     1      44.298  79.133  39.628  0.00  0.00    +0.257 C 
ATOM     13  O   UNL     1      44.699  78.890  40.791  0.00  0.00    -0.272 OA
BRANCH  12  14
ATOM     14  C   UNL     1      43.214  78.297  39.073  0.00  0.00    +0.147 C 
ATOM     15  C   UNL     1      42.189  79.147  38.368  0.00  0.00    +0.027 C 
ATOM     16  C   UNL     1      40.993  78.365  37.958  0.00  0.00    +0.002 C 
ATOM     17  C   UNL     1      40.942  76.976  38.543  0.00  0.00    +0.000 C 
ATOM     18  C   UNL     1      41.211  77.096  40.017  0.00  0.00    +0.002 C 
ATOM     19  C   UNL     1      42.626  77.513  40.221  0.00  0.00    +0.027 C 
ATOM     20  N   UNL     1      43.776  77.386  38.103  0.00  0.00    -0.125 NA
ENDBRANCH  12  14
ENDBRANCH   7  11
BRANCH   3  21
ATOM     21  C   UNL     1      49.380  82.504  40.506  0.00  0.00    +0.383 C 
ATOM     22  O   UNL     1      50.330  83.178  40.950  0.00  0.00    -0.244 OA
ATOM     23  OXT UNL     1      49.626  81.460  39.658  0.00  0.00    -0.244 OA
ENDBRANCH   3  21
TORSDOF 3
