REMARK  Name = Cyclothiazide
REMARK  2 active torsions:
REMARK  status: ('A' for Active; 'I' for Inactive)
REMARK    1  A    between atoms: C_4  and  C_8
REMARK    2  A    between atoms: C_13  and  S_20
REMARK                            x       y       z     vdW  Elec       q    Type
REMARK                         _______ _______ _______ _____ _____    ______ ____
ROOT
ATOM      1  C   UNL     1      47.867  81.690  41.022  0.00  0.00    +0.189 C 
ATOM      2  N   UNL     1      47.566  80.303  41.156  0.00  0.00    -0.218 NA
ATOM      3  C   UNL     1      46.365  79.677  40.718  0.00  0.00    +0.086 A 
ATOM      4  C   UNL     1      45.892  78.570  41.383  0.00  0.00    +0.030 A 
ATOM      5  C   UNL     1      44.732  77.938  40.989  0.00  0.00    +0.078 A 
ATOM      6  C   UNL     1      44.029  78.424  39.905  0.00  0.00    +0.137 A 
ATOM      7  C   UNL     1      44.511  79.537  39.243  0.00  0.00    +0.042 A 
ATOM      8  C   UNL     1      45.661  80.152  39.645  0.00  0.00    +0.140 A 
ATOM      9  S   UNL     1      46.338  81.569  38.857  0.00  0.00    +0.080 S 
ATOM     10  O   UNL     1      47.365  81.144  37.846  0.00  0.00    -0.152 OA
ATOM     11  O   UNL     1      45.283  82.423  38.241  0.00  0.00    -0.152 OA
ATOM     12  N   UNL     1      47.094  82.453  40.115  0.00  0.00    -0.057 NA
ATOM     13 CL   UNL     1      44.136  76.511  41.858  0.00  0.00    -0.081 Cl
ENDROOT
BRANCH   1  17
ATOM     14  C   UNL     1      48.556  83.785  44.010  0.00  0.00    +0.009 C 
ATOM     15  C   UNL     1      49.621  82.674  44.068  0.00  0.00    +0.022 C 
ATOM     16  C   UNL     1      48.956  81.562  43.299  0.00  0.00    +0.008 C 
ATOM     17  C   UNL     1      47.987  82.268  42.390  0.00  0.00    +0.043 C 
ATOM     18  C   UNL     1      48.429  83.687  42.470  0.00  0.00    +0.025 C 
ATOM     19  C   UNL     1      49.887  83.856  42.166  0.00  0.00    -0.031 C 
ATOM     20  C   UNL     1      50.625  83.293  43.134  0.00  0.00    -0.031 C 
ENDBRANCH   1  17
BRANCH   6  21
ATOM     21  S   UNL     1      42.566  77.665  39.373  0.00  0.00    +0.094 S 
ATOM     22  O   UNL     1      42.025  78.449  38.212  0.00  0.00    -0.150 OA
ATOM     23  O   UNL     1      42.871  76.260  38.949  0.00  0.00    -0.150 OA
ATOM     24  N   UNL     1      41.447  77.611  40.675  0.00  0.00    +0.039 NA
ENDBRANCH   6  21
TORSDOF 2
