REMARK  Name = Cycloserine
REMARK  0 active torsions:
REMARK  status: ('A' for Active; 'I' for Inactive)
REMARK                            x       y       z     vdW  Elec       q    Type
REMARK                         _______ _______ _______ _____ _____    ______ ____
ROOT
ATOM      1  C   UNL     1      45.706  80.421  39.233  0.00  0.00    +0.202 C 
ATOM      2  C   UNL     1      46.790  81.123  40.048  0.00  0.00    +0.203 C 
ATOM      3  C   UNL     1      46.876  82.412  39.318  0.00  0.00    +0.287 C 
ATOM      4  O   UNL     1      47.829  83.219  39.281  0.00  0.00    -0.269 OA
ATOM      5  N   UNL     1      45.623  82.541  38.656  0.00  0.00    -0.061 NA
ATOM      6  O   UNL     1      44.841  81.473  38.942  0.00  0.00    -0.242 OA
ATOM      7  N   UNL     1      46.365  81.386  41.397  0.00  0.00    -0.120 NA
ENDROOT
TORSDOF 0
