REMARK  Name = Cynarin
REMARK  9 active torsions:
REMARK  status: ('A' for Active; 'I' for Inactive)
REMARK    1  A    between atoms: C_4  and  O_23
REMARK    2  A    between atoms: C_6  and  C_7
REMARK    3  A    between atoms: C_6  and  O_10
REMARK    4  A    between atoms: O_10  and  C_11
REMARK    5  A    between atoms: C_11  and  C_13
REMARK    6  A    between atoms: C_14  and  C_15
REMARK    7  A    between atoms: O_23  and  C_24
REMARK    8  A    between atoms: C_24  and  C_26
REMARK    9  A    between atoms: C_27  and  C_28
REMARK                            x       y       z     vdW  Elec       q    Type
REMARK                         _______ _______ _______ _____ _____    ______ ____
ROOT
ATOM      1  C   UNL     1      45.365  76.425  42.775  0.00  0.00    +0.087 C 
ATOM      2  C   UNL     1      43.969  76.063  43.156  0.00  0.00    +0.190 C 
ATOM      3  C   UNL     1      43.360  75.355  41.981  0.00  0.00    +0.222 C 
ATOM      4  C   UNL     1      43.816  75.884  40.669  0.00  0.00    +0.206 C 
ATOM      5  C   UNL     1      44.436  77.275  40.701  0.00  0.00    +0.098 C 
ATOM      6  C   UNL     1      45.613  77.349  41.676  0.00  0.00    +0.234 C 
ATOM      7  O   UNL     1      41.956  75.476  42.127  0.00  0.00    -0.217 OA
ATOM      8  O   UNL     1      43.176  77.076  43.578  0.00  0.00    -0.220 OA
ENDROOT
BRANCH   6   9
ATOM      9  C   UNL     1      46.790  76.788  40.884  0.00  0.00    +0.400 C 
ATOM     10  O   UNL     1      46.680  76.310  39.745  0.00  0.00    -0.242 OA
ATOM     11  O   UNL     1      48.080  76.796  41.430  0.00  0.00    -0.242 OA
ENDBRANCH   6   9
BRANCH   6  12
ATOM     12  O   UNL     1      45.861  78.641  41.878  0.00  0.00    -0.441 OA
BRANCH  12  13
ATOM     13  C   UNL     1      46.182  79.775  41.282  0.00  0.00    +0.342 C 
ATOM     14  O   UNL     1      45.904  79.861  40.114  0.00  0.00    -0.245 OA
BRANCH  13  15
ATOM     15  C   UNL     1      46.857  80.876  42.033  0.00  0.00    +0.082 C 
ATOM     16  C   UNL     1      48.087  81.156  41.768  0.00  0.00    +0.007 C 
BRANCH  16  17
ATOM     17  C   UNL     1      48.889  82.172  42.396  0.00  0.00    +0.004 A 
ATOM     18  C   UNL     1      50.277  82.126  42.199  0.00  0.00    +0.045 A 
ATOM     19  C   UNL     1      51.128  83.017  42.797  0.00  0.00    +0.234 A 
ATOM     20  C   UNL     1      50.662  84.020  43.635  0.00  0.00    +0.234 A 
ATOM     21  C   UNL     1      49.317  84.065  43.823  0.00  0.00    +0.045 A 
ATOM     22  C   UNL     1      48.435  83.152  43.210  0.00  0.00    +0.003 A 
ATOM     23  O   UNL     1      51.623  84.829  44.165  0.00  0.00    -0.283 OA
ATOM     24  O   UNL     1      52.506  82.847  42.501  0.00  0.00    -0.283 OA
ENDBRANCH  16  17
ENDBRANCH  13  15
ENDBRANCH  12  13
ENDBRANCH   6  12
BRANCH   4  25
ATOM     25  O   UNL     1      42.676  75.873  39.866  0.00  0.00    -0.446 OA
BRANCH  25  26
ATOM     26  C   UNL     1      42.316  76.806  38.881  0.00  0.00    +0.341 C 
ATOM     27  O   UNL     1      43.312  77.500  38.518  0.00  0.00    -0.245 OA
BRANCH  26  28
ATOM     28  C   UNL     1      40.991  76.884  38.420  0.00  0.00    +0.082 C 
ATOM     29  C   UNL     1      39.844  77.120  38.139  0.00  0.00    +0.007 C 
BRANCH  29  30
ATOM     30  C   UNL     1      39.013  76.458  37.100  0.00  0.00    +0.004 A 
ATOM     31  C   UNL     1      37.710  76.823  36.897  0.00  0.00    +0.045 A 
ATOM     32  C   UNL     1      36.878  76.197  35.969  0.00  0.00    +0.234 A 
ATOM     33  C   UNL     1      37.424  75.178  35.253  0.00  0.00    +0.234 A 
ATOM     34  C   UNL     1      38.712  74.760  35.401  0.00  0.00    +0.045 A 
ATOM     35  C   UNL     1      39.504  75.428  36.348  0.00  0.00    +0.003 A 
ATOM     36  O   UNL     1      36.621  74.520  34.309  0.00  0.00    -0.283 OA
ATOM     37  O   UNL     1      35.566  76.599  35.802  0.00  0.00    -0.283 OA
ENDBRANCH  29  30
ENDBRANCH  26  28
ENDBRANCH  25  26
ENDBRANCH   4  25
TORSDOF 9
