REMARK  Name = Cyproterone
REMARK  1 active torsions:
REMARK  status: ('A' for Active; 'I' for Inactive)
REMARK    1  A    between atoms: C_2  and  C_4
REMARK                            x       y       z     vdW  Elec       q    Type
REMARK                         _______ _______ _______ _____ _____    ______ ____
ROOT
ATOM      1  C   UNL     1      50.575  82.494  43.035  0.00  0.00    +0.177 C 
ATOM      2  C   UNL     1      50.147  81.752  44.278  0.00  0.00    +0.038 C 
ATOM      3  C   UNL     1      49.022  80.893  43.746  0.00  0.00    +0.003 C 
ATOM      4  C   UNL     1      48.276  81.949  42.917  0.00  0.00    +0.007 C 
ATOM      5  C   UNL     1      49.373  82.537  42.098  0.00  0.00    +0.033 C 
ATOM      6  C   UNL     1      49.730  81.691  40.894  0.00  0.00    +0.003 C 
ATOM      7  C   UNL     1      48.557  81.158  40.156  0.00  0.00    +0.001 C 
ATOM      8  C   UNL     1      47.275  81.612  40.727  0.00  0.00    +0.008 C 
ATOM      9  C   UNL     1      47.191  81.241  42.166  0.00  0.00    +0.023 C 
ATOM     10  C   UNL     1      47.130  79.787  42.396  0.00  0.00    -0.015 C 
ATOM     11  C   UNL     1      46.397  79.047  41.566  0.00  0.00    +0.049 C 
ATOM     12  C   UNL     1      45.692  79.721  40.472  0.00  0.00    -0.010 C 
ATOM     13  C   UNL     1      44.683  79.118  39.871  0.00  0.00    +0.034 C 
ATOM     14  C   UNL     1      44.032  79.856  38.785  0.00  0.00    +0.172 C 
ATOM     15  O   UNL     1      42.789  79.708  38.644  0.00  0.00    -0.291 OA
ATOM     16  C   UNL     1      44.860  80.730  37.914  0.00  0.00    +0.062 C 
ATOM     17  C   UNL     1      46.219  80.148  37.569  0.00  0.00    +0.008 C 
ATOM     18  C   UNL     1      46.107  81.218  38.551  0.00  0.00    +0.011 C 
ATOM     19  C   UNL     1      46.047  81.078  40.023  0.00  0.00    +0.020 C 
ATOM     20  C   UNL     1      44.893  82.000  40.483  0.00  0.00    +0.004 C 
ATOM     21 CL   UNL     1      46.243  77.327  41.726  0.00  0.00    -0.083 Cl
ATOM     22  C   UNL     1      49.102  83.928  41.580  0.00  0.00    +0.003 C 
ATOM     23  O   UNL     1      51.626  81.784  42.460  0.00  0.00    -0.218 OA
ENDROOT
BRANCH   1  25
ATOM     24  C   UNL     1      50.374  84.684  44.479  0.00  0.00    +0.075 C 
ATOM     25  C   UNL     1      51.046  83.818  43.474  0.00  0.00    +0.178 C 
ATOM     26  O   UNL     1      52.089  84.262  42.979  0.00  0.00    -0.293 OA
ENDBRANCH   1  25
TORSDOF 1
