REMARK  Name = Cytarabine
REMARK  2 active torsions:
REMARK  status: ('A' for Active; 'I' for Inactive)
REMARK    1  A    between atoms: N1_3  and  C1*_9
REMARK    2  A    between atoms: C4*_12  and  C5*_14
REMARK                            x       y       z     vdW  Elec       q    Type
REMARK                         _______ _______ _______ _____ _____    ______ ____
ROOT
ATOM      1  C1*   C A   1      44.672  78.932  40.543  0.00  0.00    +0.242 C 
ATOM      2  C2*   C A   1      44.569  77.887  39.490  0.00  0.00    +0.234 C 
ATOM      3  C3*   C A   1      44.421  76.609  40.334  0.00  0.00    +0.216 C 
ATOM      4  C4*   C A   1      45.004  77.024  41.653  0.00  0.00    +0.183 C 
ATOM      5  O4*   C A   1      45.516  78.297  41.488  0.00  0.00    -0.330 OA
ATOM      6  O3*   C A   1      43.081  76.242  40.450  0.00  0.00    -0.218 OA
ATOM      7  O2*   C A   1      43.392  77.966  38.746  0.00  0.00    -0.216 OA
ENDROOT
BRANCH   1  10
ATOM      8  C5    C A   1      47.165  81.637  40.576  0.00  0.00    +0.057 A 
ATOM      9  C6    C A   1      46.444  80.497  40.853  0.00  0.00    +0.085 A 
ATOM     10  N1    C A   1      45.342  80.140  40.166  0.00  0.00    -0.254 N 
ATOM     11  C2    C A   1      44.953  80.955  39.169  0.00  0.00    +0.353 A 
ATOM     12  O2    C A   1      43.919  80.654  38.497  0.00  0.00    -0.244 OA
ATOM     13  N3    C A   1      45.643  82.081  38.876  0.00  0.00    -0.174 NA
ATOM     14  C4    C A   1      46.746  82.456  39.549  0.00  0.00    +0.176 A 
ATOM     15  N4    C A   1      47.458  83.644  39.225  0.00  0.00    -0.107 NA
ENDBRANCH   1  10
BRANCH   4  16
ATOM     16  C5*   C A   1      43.949  77.102  42.743  0.00  0.00    +0.214 C 
ATOM     17  O5*   C A   1      44.509  76.665  43.940  0.00  0.00    -0.218 OA
ENDBRANCH   4  16
TORSDOF 2
