REMARK  Name = Dabrafenib
REMARK  6 active torsions:
REMARK  status: ('A' for Active; 'I' for Inactive)
REMARK    1  A    between atoms: C_2  and  C_5
REMARK    2  A    between atoms: C_7  and  C_17
REMARK    3  A    between atoms: C_8  and  C_10
REMARK    4  A    between atoms: C_19  and  N_23
REMARK    5  A    between atoms: N_23  and  S_24
REMARK    6  A    between atoms: S_24  and  C_27
REMARK                            x       y       z     vdW  Elec       q    Type
REMARK                         _______ _______ _______ _____ _____    ______ ____
ROOT
ATOM      1  C   UNL     1      47.789  78.639  41.583  0.00  0.00    +0.047 A 
ATOM      2  C   UNL     1      48.336  79.359  42.614  0.00  0.00    +0.158 A 
ATOM      3  C   UNL     1      49.657  79.829  42.583  0.00  0.00    +0.118 A 
ATOM      4  C   UNL     1      50.352  79.513  41.445  0.00  0.00    +0.020 A 
ATOM      5  C   UNL     1      49.819  78.787  40.392  0.00  0.00    +0.002 A 
ATOM      6  C   UNL     1      48.529  78.353  40.473  0.00  0.00    +0.004 A 
ATOM      7  F   UNL     1      47.594  79.640  43.716  0.00  0.00    -0.203 F 
ENDROOT
BRANCH   1  10
ATOM      8  C   UNL     1      44.789  76.748  42.442  0.00  0.00    +0.087 A 
ATOM      9  N   UNL     1      46.045  77.159  42.406  0.00  0.00    -0.243 NA
ATOM     10  C   UNL     1      46.382  78.152  41.645  0.00  0.00    +0.091 A 
ATOM     11  C   UNL     1      45.405  78.744  40.899  0.00  0.00    +0.066 A 
ATOM     12  S   UNL     1      44.037  77.818  41.346  0.00  0.00    -0.069 S 
BRANCH  11  13
ATOM     13  C   UNL     1      45.487  79.875  39.959  0.00  0.00    +0.093 A 
ATOM     14  N   UNL     1      44.537  80.070  39.024  0.00  0.00    -0.211 NA
ATOM     15  C   UNL     1      44.611  81.105  38.164  0.00  0.00    +0.257 A 
ATOM     16  N   UNL     1      45.657  81.976  38.227  0.00  0.00    -0.210 NA
ATOM     17  C   UNL     1      46.636  81.835  39.137  0.00  0.00    +0.103 A 
ATOM     18  C   UNL     1      46.523  80.753  40.008  0.00  0.00    +0.040 A 
ATOM     19  N   UNL     1      43.581  81.262  37.199  0.00  0.00    -0.086 NA
ENDBRANCH  11  13
BRANCH   8  21
ATOM     20  C   UNL     1      42.764  75.478  42.961  0.00  0.00    +0.006 C 
ATOM     21  C   UNL     1      44.260  75.623  43.266  0.00  0.00    +0.041 C 
ATOM     22  C   UNL     1      44.450  75.888  44.745  0.00  0.00    +0.006 C 
ATOM     23  C   UNL     1      44.908  74.315  42.927  0.00  0.00    +0.006 C 
ENDBRANCH   8  21
ENDBRANCH   1  10
BRANCH   3  24
ATOM     24  N   UNL     1      50.194  80.582  43.645  0.00  0.00    -0.094 NA
BRANCH  24  25
ATOM     25  S   UNL     1      51.018  82.030  43.368  0.00  0.00    +0.097 S 
ATOM     26  O   UNL     1      51.809  82.402  44.587  0.00  0.00    -0.148 OA
ATOM     27  O   UNL     1      52.030  81.853  42.249  0.00  0.00    -0.148 OA
BRANCH  25  28
ATOM     28  C   UNL     1      49.975  83.377  43.025  0.00  0.00    +0.182 A 
ATOM     29  C   UNL     1      50.055  84.115  41.873  0.00  0.00    +0.161 A 
ATOM     30  C   UNL     1      49.231  85.174  41.608  0.00  0.00    +0.031 A 
ATOM     31  C   UNL     1      48.272  85.546  42.503  0.00  0.00    +0.005 A 
ATOM     32  C   UNL     1      48.164  84.814  43.686  0.00  0.00    +0.031 A 
ATOM     33  C   UNL     1      49.015  83.733  43.945  0.00  0.00    +0.161 A 
ATOM     34  F   UNL     1      48.868  83.056  45.109  0.00  0.00    -0.203 F 
ATOM     35  F   UNL     1      50.986  83.780  40.968  0.00  0.00    -0.203 F 
ENDBRANCH  25  28
ENDBRANCH  24  25
ENDBRANCH   3  24
TORSDOF 6
