REMARK  Name = Dacarbazine
REMARK  3 active torsions:
REMARK  status: ('A' for Active; 'I' for Inactive)
REMARK    1  A    between atoms: N_2  and  N_4
REMARK    2  A    between atoms: N_5  and  C_6
REMARK    3  A    between atoms: C_7  and  C_11
REMARK                            x       y       z     vdW  Elec       q    Type
REMARK                         _______ _______ _______ _____ _____    ______ ____
ROOT
ATOM      1  C   UNL     1      46.485  80.489  40.656  0.00  0.00    +0.209 A 
ATOM      2  C   UNL     1      45.575  80.737  39.648  0.00  0.00    +0.177 A 
ATOM      3  N   UNL     1      44.705  79.690  39.639  0.00  0.00    -0.216 NA
ATOM      4  C   UNL     1      45.043  78.814  40.596  0.00  0.00    +0.201 A 
ATOM      5  N   UNL     1      46.130  79.303  41.216  0.00  0.00    -0.202 NA
ENDROOT
BRANCH   2   6
ATOM      6  C   UNL     1      45.531  81.890  38.751  0.00  0.00    +0.305 C 
ATOM      7  O   UNL     1      44.602  81.961  37.914  0.00  0.00    -0.265 OA
ATOM      8  N   UNL     1      46.510  82.889  38.833  0.00  0.00    -0.082 NA
ENDBRANCH   2   6
BRANCH   1  10
ATOM      9  N   UNL     1      48.266  81.003  42.038  0.00  0.00    -0.076 NA
ATOM     10  N   UNL     1      47.579  81.330  41.022  0.00  0.00    -0.111 NA
BRANCH   9  12
ATOM     11  C   UNL     1      49.673  82.979  41.647  0.00  0.00    +0.136 C 
ATOM     12  N   UNL     1      49.399  81.759  42.349  0.00  0.00    -0.211 N 
ATOM     13  C   UNL     1      50.291  81.269  43.410  0.00  0.00    +0.136 C 
ENDBRANCH   9  12
ENDBRANCH   1  10
TORSDOF 3
