REMARK  Name = Daclatasvir
REMARK  13 active torsions:
REMARK  status: ('A' for Active; 'I' for Inactive)
REMARK    1  A    between atoms: C_2  and  C_4
REMARK    2  A    between atoms: C_4  and  C_5
REMARK    3  A    between atoms: C_4  and  N_50
REMARK    4  A    between atoms: C_11  and  C_12
REMARK    5  A    between atoms: C_15  and  C_17
REMARK    6  A    between atoms: C_20  and  C_23
REMARK    7  A    between atoms: C_26  and  C_29
REMARK    8  A    between atoms: C_32  and  C_34
REMARK    9  A    between atoms: C_39  and  C_41
REMARK   10  A    between atoms: C_41  and  C_42
REMARK   11  A    between atoms: C_41  and  N_45
REMARK   12  A    between atoms: C_46  and  O_48
REMARK   13  A    between atoms: C_51  and  O_53
REMARK                            x       y       z     vdW  Elec       q    Type
REMARK                         _______ _______ _______ _____ _____    ______ ____
ROOT
ATOM      1  C   UNL     1      41.518  76.880  38.217  0.00  0.00    +0.019 A 
ATOM      2  C   UNL     1      41.910  78.158  37.905  0.00  0.00    +0.002 A 
ATOM      3  C   UNL     1      42.924  78.809  38.581  0.00  0.00    +0.000 A 
ATOM      4  C   UNL     1      43.574  78.168  39.604  0.00  0.00    +0.000 A 
ATOM      5  C   UNL     1      43.200  76.890  39.934  0.00  0.00    +0.000 A 
ATOM      6  C   UNL     1      42.173  76.239  39.246  0.00  0.00    +0.002 A 
ENDROOT
BRANCH   4   7
ATOM      7  C   UNL     1      44.650  78.835  40.341  0.00  0.00    +0.000 A 
ATOM      8  C   UNL     1      44.938  80.174  40.196  0.00  0.00    +0.000 A 
ATOM      9  C   UNL     1      45.988  80.749  40.926  0.00  0.00    +0.002 A 
ATOM     10  C   UNL     1      46.748  80.004  41.792  0.00  0.00    +0.019 A 
ATOM     11  C   UNL     1      46.449  78.671  41.928  0.00  0.00    +0.002 A 
ATOM     12  C   UNL     1      45.425  78.079  41.225  0.00  0.00    +0.000 A 
BRANCH  10  13
ATOM     13  C   UNL     1      47.856  80.625  42.535  0.00  0.00    +0.102 A 
ATOM     14  C   UNL     1      48.590  80.016  43.526  0.00  0.00    +0.119 A 
ATOM     15  N   UNL     1      49.487  80.933  43.947  0.00  0.00    -0.226 NA
ATOM     16  C   UNL     1      49.373  82.082  43.291  0.00  0.00    +0.157 A 
ATOM     17  N   UNL     1      48.341  81.855  42.412  0.00  0.00    -0.227 NA
BRANCH  16  18
ATOM     18  C   UNL     1      50.064  83.358  43.368  0.00  0.00    +0.134 C 
ATOM     19  C   UNL     1      49.143  84.473  43.856  0.00  0.00    +0.029 C 
ATOM     20  C   UNL     1      50.124  85.570  44.164  0.00  0.00    +0.024 C 
ATOM     21  C   UNL     1      51.508  84.918  44.141  0.00  0.00    +0.094 C 
ATOM     22  N   UNL     1      51.154  83.493  44.307  0.00  0.00    -0.273 N 
ATOM     23  C   UNL     1      51.724  82.516  45.131  0.00  0.00    +0.246 C 
ATOM     24  O   UNL     1      52.002  81.394  44.563  0.00  0.00    -0.273 OA
BRANCH  23  25
ATOM     25  C   UNL     1      52.049  82.593  46.554  0.00  0.00    +0.175 C 
BRANCH  25  26
ATOM     26  C   UNL     1      51.956  81.214  47.194  0.00  0.00    +0.029 C 
ATOM     27  C   UNL     1      52.970  80.246  46.685  0.00  0.00    +0.002 C 
ATOM     28  C   UNL     1      52.054  81.367  48.696  0.00  0.00    +0.002 C 
ENDBRANCH  25  26
BRANCH  25  29
ATOM     29  N   UNL     1      53.279  83.189  46.930  0.00  0.00    -0.161 NA
ATOM     30  C   UNL     1      53.470  84.588  47.133  0.00  0.00    +0.422 C 
ATOM     31  O   UNL     1      52.529  85.368  46.935  0.00  0.00    -0.225 OA
BRANCH  30  32
ATOM     32  O   UNL     1      54.692  85.106  47.552  0.00  0.00    -0.429 OA
ATOM     33  C   UNL     1      54.947  86.462  47.784  0.00  0.00    +0.257 C 
ENDBRANCH  30  32
ENDBRANCH  25  29
ENDBRANCH  23  25
ENDBRANCH  16  18
ENDBRANCH  10  13
ENDBRANCH   4   7
BRANCH   1  37
ATOM     34  C   UNL     1      38.879  74.771  36.855  0.00  0.00    +0.157 A 
ATOM     35  N   UNL     1      38.842  75.841  36.047  0.00  0.00    -0.226 NA
ATOM     36  C   UNL     1      39.774  76.725  36.420  0.00  0.00    +0.119 A 
ATOM     37  C   UNL     1      40.431  76.203  37.506  0.00  0.00    +0.102 A 
ATOM     38  N   UNL     1      39.876  75.019  37.754  0.00  0.00    -0.227 NA
BRANCH  34  45
ATOM     39  C   UNL     1      37.982  73.864  34.184  0.00  0.00    +0.246 C 
ATOM     40  O   UNL     1      39.072  74.517  34.118  0.00  0.00    -0.273 OA
ATOM     41  N   UNL     1      37.573  73.344  35.406  0.00  0.00    -0.273 N 
ATOM     42  C   UNL     1      36.509  72.346  35.628  0.00  0.00    +0.094 C 
ATOM     43  C   UNL     1      35.650  73.071  36.634  0.00  0.00    +0.024 C 
ATOM     44  C   UNL     1      36.692  73.753  37.532  0.00  0.00    +0.029 C 
ATOM     45  C   UNL     1      38.000  73.626  36.754  0.00  0.00    +0.134 C 
BRANCH  39  46
ATOM     46  C   UNL     1      37.227  73.717  32.886  0.00  0.00    +0.175 C 
BRANCH  46  48
ATOM     47  C   UNL     1      36.136  74.977  31.053  0.00  0.00    +0.002 C 
ATOM     48  C   UNL     1      36.883  75.095  32.357  0.00  0.00    +0.029 C 
ATOM     49  C   UNL     1      38.131  75.948  32.207  0.00  0.00    +0.002 C 
ENDBRANCH  46  48
BRANCH  46  50
ATOM     50  N   UNL     1      38.130  73.050  31.953  0.00  0.00    -0.161 NA
ATOM     51  C   UNL     1      37.851  71.782  31.373  0.00  0.00    +0.422 C 
ATOM     52  O   UNL     1      36.831  71.137  31.724  0.00  0.00    -0.225 OA
BRANCH  51  53
ATOM     53  O   UNL     1      38.673  71.201  30.410  0.00  0.00    -0.429 OA
ATOM     54  C   UNL     1      38.474  69.937  29.850  0.00  0.00    +0.257 C 
ENDBRANCH  51  53
ENDBRANCH  46  50
ENDBRANCH  39  46
ENDBRANCH  34  45
ENDBRANCH   1  37
TORSDOF 13
