REMARK  Name = Dacomitinib
REMARK  6 active torsions:
REMARK  status: ('A' for Active; 'I' for Inactive)
REMARK    1  A    between atoms: O_2  and  C_3
REMARK    2  A    between atoms: C_4  and  N_22
REMARK    3  A    between atoms: N_13  and  C_14
REMARK    4  A    between atoms: C_23  and  C_25
REMARK    5  A    between atoms: C_26  and  C_27
REMARK    6  A    between atoms: C_27  and  N_28
REMARK                            x       y       z     vdW  Elec       q    Type
REMARK                         _______ _______ _______ _____ _____    ______ ____
ROOT
ATOM      1  C   UNL     1      43.452  78.965  38.848  0.00  0.00    +0.155 A 
ATOM      2  C   UNL     1      44.001  78.510  40.043  0.00  0.00    +0.108 A 
ATOM      3  C   UNL     1      45.007  79.245  40.605  0.00  0.00    +0.024 A 
ATOM      4  C   UNL     1      45.476  80.412  40.011  0.00  0.00    +0.053 A 
ATOM      5  C   UNL     1      44.926  80.854  38.826  0.00  0.00    +0.089 A 
ATOM      6  C   UNL     1      43.908  80.122  38.246  0.00  0.00    +0.057 A 
ATOM      7  N   UNL     1      45.384  81.986  38.258  0.00  0.00    -0.224 NA
ATOM      8  C   UNL     1      46.366  82.687  38.827  0.00  0.00    +0.200 A 
ATOM      9  N   UNL     1      46.875  82.235  39.966  0.00  0.00    -0.207 NA
ATOM     10  C   UNL     1      46.491  81.124  40.613  0.00  0.00    +0.155 A 
ATOM     11  N   UNL     1      47.117  80.709  41.807  0.00  0.00    -0.194 NA
ENDROOT
BRANCH  11  12
ATOM     12  C   UNL     1      48.155  81.489  42.371  0.00  0.00    +0.073 A 
ATOM     13  C   UNL     1      47.865  82.745  42.874  0.00  0.00    +0.030 A 
ATOM     14  C   UNL     1      48.813  83.585  43.419  0.00  0.00    +0.086 A 
ATOM     15  C   UNL     1      50.123  83.130  43.457  0.00  0.00    +0.151 A 
ATOM     16  C   UNL     1      50.447  81.889  42.968  0.00  0.00    +0.032 A 
ATOM     17  C   UNL     1      49.455  81.062  42.420  0.00  0.00    +0.019 A 
ATOM     18  F   UNL     1      51.065  83.920  43.979  0.00  0.00    -0.203 F 
ATOM     19 CL   UNL     1      48.376  85.166  44.035  0.00  0.00    -0.080 Cl
ENDBRANCH  11  12
BRANCH   2  20
ATOM     20  N   UNL     1      43.503  77.335  40.607  0.00  0.00    -0.172 NA
ATOM     21  C   UNL     1      44.167  76.385  41.409  0.00  0.00    +0.269 C 
ATOM     22  O   UNL     1      45.065  76.764  42.186  0.00  0.00    -0.268 OA
BRANCH  21  23
ATOM     23  C   UNL     1      43.831  74.940  41.360  0.00  0.00    +0.057 C 
ATOM     24  C   UNL     1      44.230  74.109  42.279  0.00  0.00    -0.004 C 
BRANCH  24  25
ATOM     25  C   UNL     1      43.827  72.681  42.216  0.00  0.00    +0.099 C 
BRANCH  25  26
ATOM     26  N   UNL     1      44.122  71.909  43.344  0.00  0.00    -0.269 NA
ATOM     27  C   UNL     1      43.481  72.162  44.573  0.00  0.00    +0.072 C 
ATOM     28  C   UNL     1      42.600  70.998  45.031  0.00  0.00    +0.017 C 
ATOM     29  C   UNL     1      42.486  69.924  43.977  0.00  0.00    +0.003 C 
ATOM     30  C   UNL     1      43.899  69.485  43.618  0.00  0.00    +0.017 C 
ATOM     31  C   UNL     1      44.746  70.653  43.210  0.00  0.00    +0.072 C 
ENDBRANCH  25  26
ENDBRANCH  24  25
ENDBRANCH  21  23
ENDBRANCH   2  20
BRANCH   1  33
ATOM     32  C   UNL     1      41.518  78.856  37.446  0.00  0.00    +0.253 C 
ATOM     33  O   UNL     1      42.436  78.206  38.298  0.00  0.00    -0.470 OA
ENDBRANCH   1  33
TORSDOF 6
