REMARK  Name = Dalfopristin
REMARK  7 active torsions:
REMARK  status: ('A' for Active; 'I' for Inactive)
REMARK    1  A    between atoms: C_2  and  N_3
REMARK    2  A    between atoms: N_3  and  C_4
REMARK    3  A    between atoms: N_3  and  C_6
REMARK    4  A    between atoms: C_6  and  C_7
REMARK    5  A    between atoms: C_7  and  S_8
REMARK    6  A    between atoms: S_8  and  C_11
REMARK    7  A    between atoms: C_19  and  C_46
REMARK                            x       y       z     vdW  Elec       q    Type
REMARK                         _______ _______ _______ _____ _____    ______ ____
ROOT
ATOM      1  C   UNL     1      43.914  77.683  38.447  0.00  0.00    +0.160 C 
ATOM      2  C   UNL     1      44.270  77.909  37.016  0.00  0.00    +0.047 C 
ATOM      3  C   UNL     1      45.552  78.743  37.122  0.00  0.00    +0.096 C 
ATOM      4  N   UNL     1      45.257  79.527  38.342  0.00  0.00    -0.265 N 
ATOM      5  C   UNL     1      44.921  78.481  39.262  0.00  0.00    +0.197 C 
ATOM      6  C   UNL     1      44.533  78.787  40.600  0.00  0.00    +0.337 C 
ATOM      7  O   UNL     1      44.214  79.924  41.077  0.00  0.00    -0.248 OA
ATOM      8  O   UNL     1      44.480  77.743  41.551  0.00  0.00    -0.451 OA
ATOM      9  C   UNL     1      45.330  76.672  41.653  0.00  0.00    +0.173 C 
ATOM     10  C   UNL     1      46.654  76.972  42.398  0.00  0.00    +0.062 C 
ATOM     11  C   UNL     1      46.411  77.546  43.710  0.00  0.00    -0.018 C 
ATOM     12  C   UNL     1      46.949  77.290  44.878  0.00  0.00    +0.055 C 
ATOM     13  C   UNL     1      47.975  76.336  45.228  0.00  0.00    +0.265 C 
ATOM     14  O   UNL     1      47.630  75.409  46.068  0.00  0.00    -0.268 OA
ATOM     15  N   UNL     1      49.316  76.312  44.751  0.00  0.00    -0.197 NA
ATOM     16  C   UNL     1      50.010  77.451  44.188  0.00  0.00    +0.142 C 
ATOM     17  C   UNL     1      51.194  77.025  43.397  0.00  0.00    -0.003 C 
ATOM     18  C   UNL     1      52.314  77.686  43.268  0.00  0.00    -0.007 C 
ATOM     19  C   UNL     1      52.701  78.958  43.825  0.00  0.00    -0.024 C 
ATOM     20  C   UNL     1      52.041  80.105  43.642  0.00  0.00    +0.002 C 
ATOM     21  C   UNL     1      50.824  80.294  42.856  0.00  0.00    +0.181 C 
ATOM     22  C   UNL     1      50.963  81.510  41.923  0.00  0.00    +0.102 C 
ATOM     23  C   UNL     1      49.644  81.689  41.217  0.00  0.00    +0.163 C 
ATOM     24  O   UNL     1      49.532  81.144  40.122  0.00  0.00    -0.295 OA
ATOM     25  C   UNL     1      48.567  82.474  41.820  0.00  0.00    +0.150 C 
ATOM     26  C   UNL     1      47.316  82.421  41.028  0.00  0.00    +0.213 A 
ATOM     27  N   UNL     1      47.117  81.480  40.105  0.00  0.00    -0.207 NA
ATOM     28  C   UNL     1      45.910  81.695  39.568  0.00  0.00    +0.175 A 
ATOM     29  C   UNL     1      45.383  82.812  40.206  0.00  0.00    +0.205 A 
ATOM     30  O   UNL     1      46.278  83.197  41.069  0.00  0.00    -0.435 OA
ATOM     31  C   UNL     1      45.300  80.905  38.511  0.00  0.00    +0.270 C 
ATOM     32  O   UNL     1      44.716  81.614  37.600  0.00  0.00    -0.268 OA
ATOM     33  O   UNL     1      49.724  80.612  43.662  0.00  0.00    -0.218 OA
ATOM     34  C   UNL     1      53.951  78.995  44.683  0.00  0.00    +0.031 C 
ATOM     35  C   UNL     1      47.483  75.729  42.345  0.00  0.00    +0.008 C 
ENDROOT
BRANCH   1  36
ATOM     36  S   UNL     1      42.262  77.872  38.899  0.00  0.00    -0.008 S 
ATOM     37  O   UNL     1      42.114  77.749  40.430  0.00  0.00    -0.173 OA
ATOM     38  O   UNL     1      41.754  79.290  38.641  0.00  0.00    -0.173 OA
BRANCH  36  39
ATOM     39  C   UNL     1      41.056  76.789  38.237  0.00  0.00    +0.168 C 
BRANCH  39  40
ATOM     40  C   UNL     1      39.794  77.405  37.752  0.00  0.00    +0.098 C 
BRANCH  40  41
ATOM     41  N   UNL     1      38.882  76.475  37.151  0.00  0.00    -0.271 NA
BRANCH  41  43
ATOM     42  C   UNL     1      38.538  74.762  35.398  0.00  0.00    +0.019 C 
ATOM     43  C   UNL     1      39.483  75.631  36.205  0.00  0.00    +0.072 C 
ENDBRANCH  41  43
BRANCH  41  44
ATOM     44  C   UNL     1      38.119  75.808  38.138  0.00  0.00    +0.072 C 
ATOM     45  C   UNL     1      36.883  76.511  38.611  0.00  0.00    +0.019 C 
ENDBRANCH  41  44
ENDBRANCH  40  41
ENDBRANCH  39  40
ENDBRANCH  36  39
ENDBRANCH   1  36
BRANCH   9  46
ATOM     46  C   UNL     1      44.674  75.480  42.312  0.00  0.00    +0.041 C 
ATOM     47  C   UNL     1      44.920  75.395  43.798  0.00  0.00    +0.004 C 
ATOM     48  C   UNL     1      43.207  75.380  41.987  0.00  0.00    +0.004 C 
ENDBRANCH   9  46
TORSDOF 7
