REMARK  Name = Danazol
REMARK  1 active torsions:
REMARK  status: ('A' for Active; 'I' for Inactive)
REMARK    1  A    between atoms: C_10  and  C_11
REMARK                            x       y       z     vdW  Elec       q    Type
REMARK                         _______ _______ _______ _____ _____    ______ ____
ROOT
ATOM      1  C   UNL     1      51.436  82.604  41.901  0.00  0.00    +0.003 C 
ATOM      2  C   UNL     1      50.160  82.618  42.765  0.00  0.00    +0.037 C 
ATOM      3  C   UNL     1      49.671  81.231  43.003  0.00  0.00    +0.003 C 
ATOM      4  C   UNL     1      48.175  81.041  42.754  0.00  0.00    +0.000 C 
ATOM      5  C   UNL     1      47.949  81.500  41.353  0.00  0.00    +0.004 C 
ATOM      6  C   UNL     1      48.213  82.946  41.188  0.00  0.00    +0.001 C 
ATOM      7  C   UNL     1      49.172  83.571  42.176  0.00  0.00    +0.003 C 
ATOM      8  C   UNL     1      48.385  84.147  43.319  0.00  0.00    +0.004 C 
ATOM      9  C   UNL     1      49.234  83.924  44.555  0.00  0.00    +0.043 C 
ATOM     10  C   UNL     1      50.545  83.360  44.102  0.00  0.00    +0.180 C 
ATOM     11  O   UNL     1      51.488  84.268  43.974  0.00  0.00    -0.212 OA
ATOM     12  C   UNL     1      48.551  83.184  39.751  0.00  0.00    +0.004 C 
ATOM     13  C   UNL     1      47.852  82.328  38.772  0.00  0.00    +0.022 C 
ATOM     14  C   UNL     1      46.796  81.403  39.270  0.00  0.00    -0.041 C 
ATOM     15  C   UNL     1      45.886  80.957  38.427  0.00  0.00    +0.031 C 
ATOM     16  C   UNL     1      44.884  80.019  38.900  0.00  0.00    +0.172 A 
ATOM     17  C   UNL     1      44.892  79.567  40.185  0.00  0.00    +0.038 A 
ATOM     18  C   UNL     1      46.016  79.912  41.112  0.00  0.00    +0.035 C 
ATOM     19  C   UNL     1      46.645  81.189  40.721  0.00  0.00    +0.019 C 
ATOM     20  C   UNL     1      45.561  82.263  41.161  0.00  0.00    +0.004 C 
ATOM     21  C   UNL     1      43.796  78.711  40.247  0.00  0.00    +0.139 A 
ATOM     22  N   UNL     1      43.227  78.710  39.013  0.00  0.00    -0.076 NA
ATOM     23  O   UNL     1      43.862  79.480  38.200  0.00  0.00    -0.354 OA
ENDROOT
BRANCH  10  24
ATOM     24  C   UNL     1      50.896  82.318  45.096  0.00  0.00    -0.049 C 
ATOM     25  C   UNL     1      51.186  81.503  45.890  0.00  0.00    -0.012 C 
ENDBRANCH  10  24
TORSDOF 1
