REMARK  Name = Dantrolene
REMARK  4 active torsions:
REMARK  status: ('A' for Active; 'I' for Inactive)
REMARK    1  A    between atoms: N_7  and  N_8
REMARK    2  A    between atoms: C_9  and  C_10
REMARK    3  A    between atoms: C_13  and  C_15
REMARK    4  A    between atoms: C_18  and  N_21
REMARK                            x       y       z     vdW  Elec       q    Type
REMARK                         _______ _______ _______ _____ _____    ______ ____
ROOT
ATOM      1  C   UNL     1      46.728  81.789  40.461  0.00  0.00    +0.166 A 
ATOM      2  C   UNL     1      46.567  82.283  39.186  0.00  0.00    +0.042 A 
ATOM      3  C   UNL     1      45.591  81.525  38.592  0.00  0.00    +0.041 A 
ATOM      4  C   UNL     1      45.188  80.591  39.524  0.00  0.00    +0.145 A 
ATOM      5  O   UNL     1      45.898  80.808  40.592  0.00  0.00    -0.452 OA
ENDROOT
BRANCH   4   6
ATOM      6  C   UNL     1      44.153  79.551  39.340  0.00  0.00    +0.035 A 
ATOM      7  C   UNL     1      44.022  78.580  40.311  0.00  0.00    +0.005 A 
ATOM      8  C   UNL     1      43.079  77.572  40.215  0.00  0.00    +0.024 A 
ATOM      9  C   UNL     1      42.269  77.558  39.123  0.00  0.00    +0.143 A 
ATOM     10  C   UNL     1      42.392  78.519  38.153  0.00  0.00    +0.024 A 
ATOM     11  C   UNL     1      43.340  79.540  38.240  0.00  0.00    +0.005 A 
BRANCH   9  12
ATOM     12  N   UNL     1      41.272  76.530  38.977  0.00  0.00    +0.058 N 
ATOM     13  O   UNL     1      40.456  76.578  38.037  0.00  0.00    -0.126 OA
ATOM     14  O   UNL     1      41.190  75.483  39.856  0.00  0.00    -0.126 OA
ENDBRANCH   9  12
ENDBRANCH   4   6
BRANCH   1  16
ATOM     15  N   UNL     1      48.641  81.591  41.866  0.00  0.00    -0.169 NA
ATOM     16  C   UNL     1      47.690  82.322  41.454  0.00  0.00    +0.155 C 
BRANCH  15  23
ATOM     17  C   UNL     1      50.640  83.195  41.640  0.00  0.00    +0.208 C 
ATOM     18  C   UNL     1      52.007  82.890  42.175  0.00  0.00    +0.272 C 
ATOM     19  O   UNL     1      53.111  83.130  41.599  0.00  0.00    -0.271 OA
ATOM     20  N   UNL     1      51.806  82.293  43.427  0.00  0.00    -0.125 NA
ATOM     21  C   UNL     1      50.459  81.841  43.531  0.00  0.00    +0.349 C 
ATOM     22  O   UNL     1      49.956  81.257  44.542  0.00  0.00    -0.249 OA
ATOM     23  N   UNL     1      49.830  82.177  42.301  0.00  0.00    -0.154 N 
ENDBRANCH  15  23
ENDBRANCH   1  16
TORSDOF 4
