REMARK  Name = Dapsone
REMARK  2 active torsions:
REMARK  status: ('A' for Active; 'I' for Inactive)
REMARK    1  A    between atoms: C_3  and  S_8
REMARK    2  A    between atoms: S_8  and  C_11
REMARK                            x       y       z     vdW  Elec       q    Type
REMARK                         _______ _______ _______ _____ _____    ______ ____
ROOT
ATOM      1  S   UNL     1      47.678  81.879  42.789  0.00  0.00    +0.027 S 
ATOM      2  O   UNL     1      46.990  83.080  43.413  0.00  0.00    -0.164 OA
ATOM      3  O   UNL     1      47.668  80.734  43.743  0.00  0.00    -0.164 OA
ENDROOT
BRANCH   1   6
ATOM      4  C   UNL     1      45.954  82.210  39.180  0.00  0.00    +0.019 A 
ATOM      5  C   UNL     1      46.622  82.489  40.340  0.00  0.00    +0.020 A 
ATOM      6  C   UNL     1      46.825  81.524  41.309  0.00  0.00    +0.110 A 
ATOM      7  C   UNL     1      46.346  80.250  41.105  0.00  0.00    +0.020 A 
ATOM      8  C   UNL     1      45.677  79.981  39.937  0.00  0.00    +0.019 A 
ATOM      9  C   UNL     1      45.471  80.954  38.960  0.00  0.00    +0.089 A 
ATOM     10  N   UNL     1      44.767  80.590  37.780  0.00  0.00    -0.128 NA
ENDBRANCH   1   6
BRANCH   1  11
ATOM     11  C   UNL     1      49.327  82.326  42.392  0.00  0.00    +0.110 A 
ATOM     12  C   UNL     1      50.314  81.378  42.225  0.00  0.00    +0.020 A 
ATOM     13  C   UNL     1      51.617  81.708  41.913  0.00  0.00    +0.019 A 
ATOM     14  C   UNL     1      51.997  83.024  41.751  0.00  0.00    +0.089 A 
ATOM     15  C   UNL     1      51.011  83.972  41.918  0.00  0.00    +0.019 A 
ATOM     16  C   UNL     1      49.709  83.641  42.230  0.00  0.00    +0.020 A 
ATOM     17  N   UNL     1      53.341  83.387  41.427  0.00  0.00    -0.128 NA
ENDBRANCH   1  11
TORSDOF 2
