REMARK  Name = Darifenacin
REMARK  7 active torsions:
REMARK  status: ('A' for Active; 'I' for Inactive)
REMARK    1  A    between atoms: N_3  and  C_22
REMARK    2  A    between atoms: C_5  and  C_6
REMARK    3  A    between atoms: C_6  and  C_7
REMARK    4  A    between atoms: C_6  and  C_13
REMARK    5  A    between atoms: C_6  and  C_19
REMARK    6  A    between atoms: C_22  and  C_23
REMARK    7  A    between atoms: C_23  and  C_24
REMARK                            x       y       z     vdW  Elec       q    Type
REMARK                         _______ _______ _______ _____ _____    ______ ____
ROOT
ATOM      1  C   UNL     1      44.781  76.667  42.954  0.00  0.00    +0.020 C 
ATOM      2  C   UNL     1      46.237  76.969  42.575  0.00  0.00    +0.072 C 
ATOM      3  N   UNL     1      46.086  77.956  41.528  0.00  0.00    -0.272 NA
ATOM      4  C   UNL     1      44.856  77.746  40.861  0.00  0.00    +0.073 C 
ATOM      5  C   UNL     1      43.940  76.910  41.771  0.00  0.00    +0.033 C 
ENDROOT
BRANCH   5   6
ATOM      6  C   UNL     1      43.429  75.717  41.076  0.00  0.00    +0.111 C 
BRANCH   6   7
ATOM      7  C   UNL     1      42.821  74.659  41.895  0.00  0.00    -0.011 A 
ATOM      8  C   UNL     1      41.587  74.677  42.486  0.00  0.00    -0.004 A 
ATOM      9  C   UNL     1      41.091  73.625  43.266  0.00  0.00    -0.000 A 
ATOM     10  C   UNL     1      41.859  72.517  43.458  0.00  0.00    -0.000 A 
ATOM     11  C   UNL     1      43.109  72.436  42.890  0.00  0.00    -0.000 A 
ATOM     12  C   UNL     1      43.555  73.481  42.140  0.00  0.00    -0.004 A 
ENDBRANCH   6   7
BRANCH   6  13
ATOM     13  C   UNL     1      42.525  76.154  39.953  0.00  0.00    -0.011 A 
ATOM     14  C   UNL     1      41.944  77.387  40.060  0.00  0.00    -0.004 A 
ATOM     15  C   UNL     1      41.118  77.860  39.058  0.00  0.00    -0.000 A 
ATOM     16  C   UNL     1      40.870  77.106  37.950  0.00  0.00    -0.000 A 
ATOM     17  C   UNL     1      41.450  75.869  37.836  0.00  0.00    -0.000 A 
ATOM     18  C   UNL     1      42.284  75.389  38.844  0.00  0.00    -0.004 A 
ENDBRANCH   6  13
BRANCH   6  19
ATOM     19  C   UNL     1      44.556  75.053  40.282  0.00  0.00    +0.267 C 
ATOM     20  O   UNL     1      45.566  75.655  39.917  0.00  0.00    -0.271 OA
ATOM     21  N   UNL     1      44.349  73.679  39.994  0.00  0.00    -0.087 NA
ENDBRANCH   6  19
ENDBRANCH   5   6
BRANCH   3  22
ATOM     22  C   UNL     1      46.374  79.286  41.964  0.00  0.00    +0.077 C 
BRANCH  22  23
ATOM     23  C   UNL     1      47.294  79.937  40.970  0.00  0.00    +0.044 C 
BRANCH  23  24
ATOM     24  C   UNL     1      47.627  81.337  41.341  0.00  0.00    -0.021 A 
ATOM     25  C   UNL     1      48.531  81.651  42.337  0.00  0.00    -0.005 A 
ATOM     26  C   UNL     1      48.780  82.966  42.612  0.00  0.00    +0.015 A 
ATOM     27  C   UNL     1      48.165  83.971  41.934  0.00  0.00    +0.135 A 
ATOM     28  C   UNL     1      47.260  83.692  40.938  0.00  0.00    +0.036 A 
ATOM     29  C   UNL     1      47.001  82.350  40.652  0.00  0.00    -0.001 A 
ATOM     30  O   UNL     1      48.625  85.192  42.442  0.00  0.00    -0.475 OA
ATOM     31  C   UNL     1      49.281  84.983  43.652  0.00  0.00    +0.210 C 
ATOM     32  C   UNL     1      49.701  83.550  43.619  0.00  0.00    +0.077 C 
ENDBRANCH  23  24
ENDBRANCH  22  23
ENDBRANCH   3  22
TORSDOF 7
