REMARK  Name = Darolutamide
REMARK  7 active torsions:
REMARK  status: ('A' for Active; 'I' for Inactive)
REMARK    1  A    between atoms: C_2  and  C_3
REMARK    2  A    between atoms: C_2  and  N_18
REMARK    3  A    between atoms: C_3  and  N_4
REMARK    4  A    between atoms: C_7  and  C_9
REMARK    5  A    between atoms: C_12  and  C_15
REMARK    6  A    between atoms: C_19  and  C_21
REMARK    7  A    between atoms: C_24  and  C_26
REMARK                            x       y       z     vdW  Elec       q    Type
REMARK                         _______ _______ _______ _____ _____    ______ ____
ROOT
ATOM      1  C   UNL     1      44.339  78.926  41.211  0.00  0.00    +0.149 C 
ENDROOT
BRANCH   1   2
ATOM      2  N   UNL     1      45.337  79.938  40.838  0.00  0.00    -0.248 N 
ATOM      3  C   UNL     1      45.555  80.325  39.572  0.00  0.00    +0.097 A 
ATOM      4  C   UNL     1      46.566  81.288  39.594  0.00  0.00    +0.041 A 
ATOM      5  C   UNL     1      46.943  81.461  40.902  0.00  0.00    +0.102 A 
ATOM      6  N   UNL     1      46.153  80.605  41.615  0.00  0.00    -0.169 NA
BRANCH   5   7
ATOM      7  C   UNL     1      47.970  82.336  41.459  0.00  0.00    +0.020 A 
ATOM      8  C   UNL     1      47.715  83.303  42.375  0.00  0.00    +0.014 A 
ATOM      9  C   UNL     1      48.676  84.123  42.930  0.00  0.00    +0.067 A 
ATOM     10  C   UNL     1      49.990  83.945  42.519  0.00  0.00    +0.079 A 
ATOM     11  C   UNL     1      50.303  82.978  41.590  0.00  0.00    +0.011 A 
ATOM     12  C   UNL     1      49.299  82.158  41.045  0.00  0.00    +0.002 A 
ATOM     13 CL   UNL     1      48.283  85.345  44.115  0.00  0.00    -0.082 Cl
BRANCH  10  14
ATOM     14  C   UNL     1      51.015  84.775  43.137  0.00  0.00    +0.101 C 
ATOM     15  N   UNL     1      51.826  85.451  43.630  0.00  0.00    -0.191 NA
ENDBRANCH  10  14
ENDBRANCH   5   7
ENDBRANCH   1   2
BRANCH   1  17
ATOM     16  C   UNL     1      44.761  76.553  41.699  0.00  0.00    +0.026 C 
ATOM     17  C   UNL     1      44.580  77.604  40.600  0.00  0.00    +0.120 C 
BRANCH  17  18
ATOM     18  N   UNL     1      43.543  77.202  39.693  0.00  0.00    -0.200 NA
ATOM     19  C   UNL     1      42.684  78.172  39.082  0.00  0.00    +0.284 C 
ATOM     20  O   UNL     1      42.895  79.384  39.226  0.00  0.00    -0.267 OA
BRANCH  19  21
ATOM     21  C   UNL     1      41.563  77.716  38.277  0.00  0.00    +0.159 A 
ATOM     22  N   UNL     1      40.848  78.338  37.354  0.00  0.00    -0.143 NA
ATOM     23  N   UNL     1      39.882  77.610  36.843  0.00  0.00    -0.150 NA
ATOM     24  C   UNL     1      39.957  76.404  37.482  0.00  0.00    +0.112 A 
ATOM     25  C   UNL     1      40.990  76.443  38.376  0.00  0.00    +0.045 A 
BRANCH  24  26
ATOM     26  C   UNL     1      39.084  75.222  37.256  0.00  0.00    +0.193 C 
ATOM     27  C   UNL     1      38.169  75.028  38.440  0.00  0.00    +0.042 C 
ATOM     28  O   UNL     1      39.767  74.085  36.872  0.00  0.00    -0.217 OA
ENDBRANCH  24  26
ENDBRANCH  19  21
ENDBRANCH  17  18
ENDBRANCH   1  17
TORSDOF 7
