REMARK  Name = Daunorubicin
REMARK  4 active torsions:
REMARK  status: ('A' for Active; 'I' for Inactive)
REMARK    1  A    between atoms: C_6  and  O_8
REMARK    2  A    between atoms: O_8  and  C_9
REMARK    3  A    between atoms: C_11  and  C_33
REMARK    4  A    between atoms: C_26  and  O_30
REMARK                            x       y       z     vdW  Elec       q    Type
REMARK                         _______ _______ _______ _____ _____    ______ ____
ROOT
ATOM      1  C   UNL     1      42.930  77.139  40.525  0.00  0.00    +0.146 C 
ATOM      2  C   UNL     1      42.627  76.321  39.268  0.00  0.00    +0.072 C 
ATOM      3  C   UNL     1      42.010  77.204  38.237  0.00  0.00    +0.184 C 
ATOM      4  C   UNL     1      42.105  78.673  38.464  0.00  0.00    +0.067 C 
ATOM      5  C   UNL     1      43.360  79.110  39.116  0.00  0.00    +0.021 A 
ATOM      6  C   UNL     1      43.754  78.291  40.198  0.00  0.00    +0.043 A 
ATOM      7  C   UNL     1      44.893  78.624  40.855  0.00  0.00    +0.197 A 
ATOM      8  C   UNL     1      45.661  79.740  40.481  0.00  0.00    +0.084 A 
ATOM      9  C   UNL     1      45.259  80.525  39.422  0.00  0.00    +0.084 A 
ATOM     10  C   UNL     1      44.100  80.200  38.741  0.00  0.00    +0.195 A 
ATOM     11  O   UNL     1      43.663  80.976  37.661  0.00  0.00    -0.287 OA
ATOM     12  C   UNL     1      46.041  81.707  39.000  0.00  0.00    +0.199 C 
ATOM     13  O   UNL     1      45.654  82.406  38.031  0.00  0.00    -0.286 OA
ATOM     14  C   UNL     1      47.263  82.076  39.694  0.00  0.00    +0.045 A 
ATOM     15  C   UNL     1      47.669  81.296  40.752  0.00  0.00    +0.076 A 
ATOM     16  C   UNL     1      46.886  80.116  41.170  0.00  0.00    +0.202 C 
ATOM     17  O   UNL     1      47.273  79.415  42.138  0.00  0.00    -0.286 OA
ATOM     18  C   UNL     1      48.824  81.635  41.423  0.00  0.00    +0.142 A 
ATOM     19  C   UNL     1      49.580  82.741  41.052  0.00  0.00    +0.037 A 
ATOM     20  C   UNL     1      49.179  83.529  39.990  0.00  0.00    +0.003 A 
ATOM     21  C   UNL     1      48.018  83.185  39.320  0.00  0.00    +0.003 A 
ATOM     22  O   UNL     1      45.347  77.866  41.931  0.00  0.00    -0.287 OA
ATOM     23  O   UNL     1      42.672  76.942  37.013  0.00  0.00    -0.218 OA
ENDROOT
BRANCH   3  24
ATOM     24  C   UNL     1      40.578  76.786  38.006  0.00  0.00    +0.179 C 
ATOM     25  O   UNL     1      40.380  75.586  37.931  0.00  0.00    -0.293 OA
ATOM     26  C   UNL     1      39.489  77.777  37.880  0.00  0.00    +0.075 C 
ENDBRANCH   3  24
BRANCH  18  27
ATOM     27  O   UNL     1      49.190  80.818  42.482  0.00  0.00    -0.471 OA
ATOM     28  C   UNL     1      50.358  81.096  43.218  0.00  0.00    +0.252 C 
ENDBRANCH  18  27
BRANCH   1  29
ATOM     29  O   UNL     1      43.336  76.414  41.580  0.00  0.00    -0.328 OA
BRANCH  29  35
ATOM     30  C   UNL     1      43.916  73.148  39.262  0.00  0.00    +0.035 C 
ATOM     31  C   UNL     1      43.790  73.906  40.535  0.00  0.00    +0.150 C 
ATOM     32  C   UNL     1      44.213  73.110  41.773  0.00  0.00    +0.196 C 
ATOM     33  C   UNL     1      44.371  74.098  42.927  0.00  0.00    +0.130 C 
ATOM     34  C   UNL     1      42.991  74.683  43.138  0.00  0.00    +0.083 C 
ATOM     35  C   UNL     1      42.524  75.320  41.877  0.00  0.00    +0.237 C 
ATOM     36  O   UNL     1      42.578  74.502  40.750  0.00  0.00    -0.330 OA
ATOM     37  N   UNL     1      44.934  73.493  44.094  0.00  0.00    -0.130 NA
ATOM     38  O   UNL     1      43.311  72.115  42.076  0.00  0.00    -0.219 OA
ENDBRANCH  29  35
ENDBRANCH   1  29
TORSDOF 4
