REMARK  Name = Decitabine
REMARK  2 active torsions:
REMARK  status: ('A' for Active; 'I' for Inactive)
REMARK    1  A    between atoms: C4*_3  and  C5*_14
REMARK    2  A    between atoms: C1*_5  and  N_6
REMARK                            x       y       z     vdW  Elec       q    Type
REMARK                         _______ _______ _______ _____ _____    ______ ____
ROOT
ATOM      1  C2* UNL     1      43.868  77.835  39.617  0.00  0.00    +0.090 C 
ATOM      2  C3* UNL     1      43.364  76.692  40.502  0.00  0.00    +0.186 C 
ATOM      3  C4* UNL     1      43.413  77.364  41.851  0.00  0.00    +0.180 C 
ATOM      4  O4* UNL     1      44.223  78.464  41.751  0.00  0.00    -0.332 OA
ATOM      5  C1* UNL     1      44.924  78.402  40.578  0.00  0.00    +0.212 C 
ATOM      6  O3* UNL     1      44.353  75.713  40.471  0.00  0.00    -0.220 OA
ENDROOT
BRANCH   5   7
ATOM      7  N   UNL     1      45.406  79.670  40.117  0.00  0.00    -0.239 N 
ATOM      8  C   UNL     1      44.779  80.221  39.048  0.00  0.00    +0.187 A 
ATOM      9  N   UNL     1      45.147  81.405  38.532  0.00  0.00    -0.190 NA
ATOM     10  C   UNL     1      46.177  82.097  39.078  0.00  0.00    +0.262 A 
ATOM     11  N   UNL     1      46.787  81.535  40.140  0.00  0.00    -0.156 NA
ATOM     12  C   UNL     1      46.416  80.355  40.649  0.00  0.00    +0.355 A 
ATOM     13  O   UNL     1      46.999  79.839  41.646  0.00  0.00    -0.244 OA
ATOM     14  N   UNL     1      46.566  83.342  38.538  0.00  0.00    -0.086 NA
ENDBRANCH   5   7
BRANCH   3  15
ATOM     15  C5* UNL     1      43.925  76.426  42.928  0.00  0.00    +0.214 C 
ATOM     16  O5* UNL     1      45.101  75.810  42.472  0.00  0.00    -0.218 OA
ENDBRANCH   3  15
TORSDOF 2
