REMARK  Name = Deferiprone
REMARK  0 active torsions:
REMARK  status: ('A' for Active; 'I' for Inactive)
REMARK                            x       y       z     vdW  Elec       q    Type
REMARK                         _______ _______ _______ _____ _____    ______ ____
ROOT
ATOM      1  C   UNL     1      44.047  79.673  38.756  0.00  0.00    +0.054 C 
ATOM      2  C   UNL     1      45.160  80.233  39.527  0.00  0.00    +0.080 A 
ATOM      3  C   UNL     1      45.714  81.442  39.120  0.00  0.00    +0.246 A 
ATOM      4  C   UNL     1      46.764  82.015  39.809  0.00  0.00    +0.237 A 
ATOM      5  O   UNL     1      47.257  83.110  39.432  0.00  0.00    -0.283 OA
ATOM      6  C   UNL     1      47.275  81.383  40.918  0.00  0.00    +0.064 A 
ATOM      7  C   UNL     1      46.700  80.191  41.288  0.00  0.00    +0.079 A 
ATOM      8  N   UNL     1      45.672  79.632  40.611  0.00  0.00    -0.325 N 
ATOM      9  C   UNL     1      45.117  78.376  41.056  0.00  0.00    +0.130 C 
ATOM     10  O   UNL     1      45.195  82.087  37.991  0.00  0.00    -0.282 OA
ENDROOT
TORSDOF 0
