REMARK  Name = Deferoxamine_Mesylate
REMARK  23 active torsions:
REMARK  status: ('A' for Active; 'I' for Inactive)
REMARK    1  A    between atoms: N_4  and  C_5
REMARK    2  A    between atoms: C_5  and  C_6
REMARK    3  A    between atoms: C_6  and  C_7
REMARK    4  A    between atoms: C_7  and  C_8
REMARK    5  A    between atoms: C_8  and  C_9
REMARK    6  A    between atoms: C_9  and  N_10
REMARK    7  A    between atoms: C_11  and  C_13
REMARK    8  A    between atoms: C_13  and  C_14
REMARK    9  A    between atoms: C_14  and  C_15
REMARK   10  A    between atoms: N_17  and  C_18
REMARK   11  A    between atoms: C_18  and  C_19
REMARK   12  A    between atoms: C_19  and  C_20
REMARK   13  A    between atoms: C_20  and  C_21
REMARK   14  A    between atoms: C_21  and  C_22
REMARK   15  A    between atoms: C_22  and  N_23
REMARK   16  A    between atoms: C_24  and  C_26
REMARK   17  A    between atoms: C_26  and  C_27
REMARK   18  A    between atoms: C_27  and  C_28
REMARK   19  A    between atoms: N_30  and  C_31
REMARK   20  A    between atoms: C_31  and  C_32
REMARK   21  A    between atoms: C_32  and  C_33
REMARK   22  A    between atoms: C_33  and  C_34
REMARK   23  A    between atoms: C_34  and  C_35
REMARK                            x       y       z     vdW  Elec       q    Type
REMARK                         _______ _______ _______ _____ _____    ______ ____
ROOT
ATOM      1  C   UNL     1      42.293  78.942  42.364  0.00  0.00    +0.127 C 
ENDROOT
BRANCH   1   4
ATOM      2  C   UNL     1      43.796  80.298  40.882  0.00  0.00    +0.251 C 
ATOM      3  O   UNL     1      43.725  81.214  41.730  0.00  0.00    -0.273 OA
ATOM      4  N   UNL     1      43.060  79.084  41.126  0.00  0.00    -0.136 N 
ATOM      5  O   UNL     1      43.057  78.073  40.255  0.00  0.00    -0.092 OA
BRANCH   2   6
ATOM      6  C   UNL     1      44.596  80.371  39.624  0.00  0.00    +0.097 C 
BRANCH   6   7
ATOM      7  C   UNL     1      45.267  81.717  39.568  0.00  0.00    +0.096 C 
BRANCH   7   9
ATOM      8  N   UNL     1      46.897  83.069  40.928  0.00  0.00    -0.205 NA
ATOM      9  C   UNL     1      46.156  81.867  40.731  0.00  0.00    +0.242 C 
ATOM     10  O   UNL     1      46.271  80.953  41.558  0.00  0.00    -0.273 OA
BRANCH   8  11
ATOM     11  C   UNL     1      47.768  83.302  42.029  0.00  0.00    +0.115 C 
BRANCH  11  12
ATOM     12  C   UNL     1      48.913  82.295  42.139  0.00  0.00    +0.023 C 
BRANCH  12  13
ATOM     13  C   UNL     1      49.754  82.339  40.921  0.00  0.00    +0.004 C 
BRANCH  13  14
ATOM     14  C   UNL     1      50.891  81.424  40.795  0.00  0.00    +0.024 C 
BRANCH  14  15
ATOM     15  C   UNL     1      52.068  81.438  41.649  0.00  0.00    +0.127 C 
BRANCH  15  19
ATOM     16  C   UNL     1      51.725  80.054  45.221  0.00  0.00    +0.097 C 
ATOM     17  C   UNL     1      51.620  80.089  43.738  0.00  0.00    +0.251 C 
ATOM     18  O   UNL     1      51.179  79.066  43.146  0.00  0.00    -0.273 OA
ATOM     19  N   UNL     1      52.017  81.264  43.047  0.00  0.00    -0.136 N 
ATOM     20  O   UNL     1      52.391  82.334  43.831  0.00  0.00    -0.092 OA
ENDBRANCH  15  19
ENDBRANCH  14  15
ENDBRANCH  13  14
ENDBRANCH  12  13
ENDBRANCH  11  12
ENDBRANCH   8  11
ENDBRANCH   7   9
ENDBRANCH   6   7
ENDBRANCH   2   6
ENDBRANCH   1   4
BRANCH   1  21
ATOM     21  C   UNL     1      43.246  78.305  43.357  0.00  0.00    +0.024 C 
BRANCH  21  22
ATOM     22  C   UNL     1      43.678  76.926  42.942  0.00  0.00    +0.004 C 
BRANCH  22  23
ATOM     23  C   UNL     1      42.489  75.982  42.949  0.00  0.00    +0.023 C 
BRANCH  23  24
ATOM     24  C   UNL     1      42.948  74.624  42.539  0.00  0.00    +0.115 C 
BRANCH  24  25
ATOM     25  N   UNL     1      43.401  74.496  41.179  0.00  0.00    -0.205 NA
ATOM     26  C   UNL     1      42.465  74.679  40.079  0.00  0.00    +0.242 C 
ATOM     27  O   UNL     1      41.292  74.942  40.424  0.00  0.00    -0.273 OA
BRANCH  26  28
ATOM     28  C   UNL     1      42.901  74.550  38.681  0.00  0.00    +0.096 C 
BRANCH  28  29
ATOM     29  C   UNL     1      41.803  74.532  37.684  0.00  0.00    +0.097 C 
BRANCH  29  30
ATOM     30  C   UNL     1      40.942  75.703  37.591  0.00  0.00    +0.251 C 
ATOM     31  O   UNL     1      41.150  76.579  38.535  0.00  0.00    -0.273 OA
ATOM     32  N   UNL     1      39.958  76.029  36.675  0.00  0.00    -0.136 N 
ATOM     33  O   UNL     1      39.302  77.246  36.902  0.00  0.00    -0.092 OA
BRANCH  32  34
ATOM     34  C   UNL     1      39.510  75.314  35.543  0.00  0.00    +0.127 C 
BRANCH  34  35
ATOM     35  C   UNL     1      38.373  74.370  35.702  0.00  0.00    +0.024 C 
BRANCH  35  36
ATOM     36  C   UNL     1      37.895  73.640  34.506  0.00  0.00    +0.003 C 
BRANCH  36  37
ATOM     37  C   UNL     1      36.789  72.650  34.822  0.00  0.00    +0.021 C 
BRANCH  37  38
ATOM     38  C   UNL     1      35.649  72.792  33.818  0.00  0.00    +0.109 C 
ATOM     39  N   UNL     1      34.578  71.872  34.055  0.00  0.00    -0.131 NA
ENDBRANCH  37  38
ENDBRANCH  36  37
ENDBRANCH  35  36
ENDBRANCH  34  35
ENDBRANCH  32  34
ENDBRANCH  29  30
ENDBRANCH  28  29
ENDBRANCH  26  28
ENDBRANCH  24  25
ENDBRANCH  23  24
ENDBRANCH  22  23
ENDBRANCH  21  22
ENDBRANCH   1  21
TORSDOF 23
REMARK  Name = Deferoxamine_Mesylate
REMARK  23 active torsions:
REMARK  status: ('A' for Active; 'I' for Inactive)
REMARK    1  A    between atoms: N_4  and  C_5
REMARK    2  A    between atoms: C_5  and  C_6
REMARK    3  A    between atoms: C_6  and  C_7
REMARK    4  A    between atoms: C_7  and  C_8
REMARK    5  A    between atoms: C_8  and  C_9
REMARK    6  A    between atoms: C_9  and  N_10
REMARK    7  A    between atoms: C_11  and  C_13
REMARK    8  A    between atoms: C_13  and  C_14
REMARK    9  A    between atoms: C_14  and  C_15
REMARK   10  A    between atoms: N_17  and  C_18
REMARK   11  A    between atoms: C_18  and  C_19
REMARK   12  A    between atoms: C_19  and  C_20
REMARK   13  A    between atoms: C_20  and  C_21
REMARK   14  A    between atoms: C_21  and  C_22
REMARK   15  A    between atoms: C_22  and  N_23
REMARK   16  A    between atoms: C_24  and  C_26
REMARK   17  A    between atoms: C_26  and  C_27
REMARK   18  A    between atoms: C_27  and  C_28
REMARK   19  A    between atoms: N_30  and  C_31
REMARK   20  A    between atoms: C_31  and  C_32
REMARK   21  A    between atoms: C_32  and  C_33
REMARK   22  A    between atoms: C_33  and  C_34
REMARK   23  A    between atoms: C_34  and  C_35
REMARK                            x       y       z     vdW  Elec       q    Type
REMARK                         _______ _______ _______ _____ _____    ______ ____
ROOT
ATOM      1  C   UNL     1      45.270  78.401  40.331  0.00  0.00    +0.213 C 
ATOM      2  S   UNL     1      43.691  77.610  40.305  0.00  0.00    +0.123 S 
ATOM      3  O   UNL     1      43.773  76.376  41.141  0.00  0.00    -0.144 OA
ATOM      4  O   UNL     1      42.623  78.517  40.867  0.00  0.00    -0.144 OA
ATOM      5  O   UNL     1      43.298  77.247  38.718  0.00  0.00    -0.047 OA
ENDROOT
TORSDOF 0
