REMARK  Name = Deflazacort
REMARK  4 active torsions:
REMARK  status: ('A' for Active; 'I' for Inactive)
REMARK    1  A    between atoms: C_4  and  C_26
REMARK    2  A    between atoms: C_26  and  C_28
REMARK    3  A    between atoms: C_28  and  O_29
REMARK    4  A    between atoms: O_29  and  C_30
REMARK                            x       y       z     vdW  Elec       q    Type
REMARK                         _______ _______ _______ _____ _____    ______ ____
ROOT
ATOM      1  C   UNL     1      47.066  85.227  43.228  0.00  0.00    +0.094 C 
ATOM      2  C   UNL     1      48.037  84.146  42.840  0.00  0.00    +0.196 C 
ATOM      3  N   UNL     1      47.949  82.899  43.132  0.00  0.00    -0.235 NA
ATOM      4  C   UNL     1      49.092  82.219  42.564  0.00  0.00    +0.178 C 
ATOM      5  C   UNL     1      49.470  83.163  41.446  0.00  0.00    +0.194 C 
ATOM      6  O   UNL     1      49.198  84.400  42.080  0.00  0.00    -0.465 OA
ATOM      7  C   UNL     1      48.342  82.903  40.467  0.00  0.00    +0.046 C 
ATOM      8  C   UNL     1      48.319  81.368  40.485  0.00  0.00    +0.006 C 
ATOM      9  C   UNL     1      48.681  80.945  41.846  0.00  0.00    +0.031 C 
ATOM     10  C   UNL     1      47.649  80.238  42.652  0.00  0.00    +0.035 C 
ATOM     11  C   UNL     1      46.971  79.229  41.744  0.00  0.00    +0.153 C 
ATOM     12  C   UNL     1      46.192  80.041  40.776  0.00  0.00    +0.038 C 
ATOM     13  C   UNL     1      47.028  80.930  39.907  0.00  0.00    +0.004 C 
ATOM     14  C   UNL     1      46.114  82.112  39.529  0.00  0.00    +0.004 C 
ATOM     15  C   UNL     1      45.074  81.511  38.584  0.00  0.00    +0.022 C 
ATOM     16  C   UNL     1      44.451  80.302  39.237  0.00  0.00    -0.038 C 
ATOM     17  C   UNL     1      43.149  80.237  39.236  0.00  0.00    +0.034 C 
ATOM     18  C   UNL     1      42.409  79.131  39.836  0.00  0.00    +0.195 C 
ATOM     19  O   UNL     1      41.154  79.080  39.827  0.00  0.00    -0.287 OA
ATOM     20  C   UNL     1      43.243  78.102  40.440  0.00  0.00    +0.038 C 
ATOM     21  C   UNL     1      44.549  78.169  40.438  0.00  0.00    -0.020 C 
ATOM     22  C   UNL     1      45.289  79.257  39.842  0.00  0.00    +0.036 C 
ATOM     23  C   UNL     1      46.227  78.651  38.760  0.00  0.00    +0.009 C 
ATOM     24  O   UNL     1      46.068  78.546  42.564  0.00  0.00    -0.223 OA
ATOM     25  C   UNL     1      49.908  80.033  41.805  0.00  0.00    +0.003 C 
ENDROOT
BRANCH   4  26
ATOM     26  C   UNL     1      50.121  82.059  43.576  0.00  0.00    +0.218 C 
ATOM     27  O   UNL     1      49.849  82.156  44.755  0.00  0.00    -0.290 OA
BRANCH  26  28
ATOM     28  C   UNL     1      51.528  81.774  43.219  0.00  0.00    +0.274 C 
BRANCH  28  29
ATOM     29  O   UNL     1      52.269  82.920  42.899  0.00  0.00    -0.440 OA
BRANCH  29  30
ATOM     30  C   UNL     1      53.150  82.968  41.828  0.00  0.00    +0.318 C 
ATOM     31  O   UNL     1      53.872  81.936  41.653  0.00  0.00    -0.250 OA
ATOM     32  C   UNL     1      53.307  84.093  40.905  0.00  0.00    +0.121 C 
ENDBRANCH  29  30
ENDBRANCH  28  29
ENDBRANCH  26  28
ENDBRANCH   4  26
TORSDOF 4
