REMARK  Name = Delapril
REMARK  12 active torsions:
REMARK  status: ('A' for Active; 'I' for Inactive)
REMARK    1  A    between atoms: C_2  and  O_3
REMARK    2  A    between atoms: O_3  and  C_4
REMARK    3  A    between atoms: C_4  and  C_6
REMARK    4  A    between atoms: C_6  and  C_7
REMARK    5  A    between atoms: C_6  and  N_15
REMARK    6  A    between atoms: C_7  and  C_8
REMARK    7  A    between atoms: C_8  and  C_9
REMARK    8  A    between atoms: N_15  and  C_16
REMARK    9  A    between atoms: C_16  and  C_18
REMARK   10  A    between atoms: N_20  and  C_21
REMARK   11  A    between atoms: N_20  and  C_25
REMARK   12  A    between atoms: C_21  and  C_22
REMARK                            x       y       z     vdW  Elec       q    Type
REMARK                         _______ _______ _______ _____ _____    ______ ____
ROOT
ATOM      1  C   UNL     1      46.551  78.115  41.256  0.00  0.00    +0.149 C 
ATOM      2  C   UNL     1      47.760  77.351  40.884  0.00  0.00    +0.029 C 
ENDROOT
BRANCH   1   3
ATOM      3  C   UNL     1      45.715  77.309  42.179  0.00  0.00    +0.242 C 
ATOM      4  O   UNL     1      46.255  77.156  43.360  0.00  0.00    -0.273 OA
ATOM      5  N   UNL     1      44.473  76.720  41.965  0.00  0.00    -0.269 N 
BRANCH   5   6
ATOM      6  C   UNL     1      43.886  76.791  40.634  0.00  0.00    +0.085 C 
ATOM      7  C   UNL     1      42.680  75.865  40.503  0.00  0.00    +0.046 C 
ATOM      8  C   UNL     1      41.985  76.434  39.297  0.00  0.00    -0.024 A 
ATOM      9  C   UNL     1      41.127  75.907  38.364  0.00  0.00    -0.005 A 
ATOM     10  C   UNL     1      40.608  76.633  37.313  0.00  0.00    -0.000 A 
ATOM     11  C   UNL     1      40.983  77.969  37.204  0.00  0.00    -0.000 A 
ATOM     12  C   UNL     1      41.841  78.505  38.132  0.00  0.00    -0.005 A 
ATOM     13  C   UNL     1      42.340  77.761  39.164  0.00  0.00    -0.024 A 
ATOM     14  C   UNL     1      43.275  78.109  40.299  0.00  0.00    +0.046 C 
ENDBRANCH   5   6
BRANCH   5  15
ATOM     15  C   UNL     1      43.746  76.046  43.001  0.00  0.00    +0.208 C 
BRANCH  15  16
ATOM     16  C   UNL     1      44.367  74.744  43.338  0.00  0.00    +0.385 C 
ATOM     17  O   UNL     1      45.350  74.366  42.651  0.00  0.00    -0.244 OA
ATOM     18  O   UNL     1      43.934  73.919  44.358  0.00  0.00    -0.244 OA
ENDBRANCH  15  16
ENDBRANCH   5  15
ENDBRANCH   1   3
BRANCH   1  19
ATOM     19  N   UNL     1      46.781  79.356  41.918  0.00  0.00    -0.201 NA
BRANCH  19  20
ATOM     20  C   UNL     1      47.627  80.329  41.353  0.00  0.00    +0.172 C 
BRANCH  20  21
ATOM     21  C   UNL     1      47.130  80.912  40.091  0.00  0.00    +0.333 C 
ATOM     22  O   UNL     1      47.645  81.775  39.383  0.00  0.00    -0.249 OA
BRANCH  21  23
ATOM     23  O   UNL     1      45.897  80.415  39.616  0.00  0.00    -0.448 OA
BRANCH  23  25
ATOM     24  C   UNL     1      46.061  80.622  37.278  0.00  0.00    +0.051 C 
ATOM     25  C   UNL     1      45.255  81.006  38.502  0.00  0.00    +0.209 C 
ENDBRANCH  23  25
ENDBRANCH  21  23
ENDBRANCH  20  21
BRANCH  20  26
ATOM     26  C   UNL     1      48.215  81.311  42.282  0.00  0.00    +0.033 C 
BRANCH  26  27
ATOM     27  C   UNL     1      49.243  82.171  41.610  0.00  0.00    +0.028 C 
BRANCH  27  28
ATOM     28  C   UNL     1      49.722  83.273  42.489  0.00  0.00    -0.022 A 
ATOM     29  C   UNL     1      48.779  83.982  43.188  0.00  0.00    -0.004 A 
ATOM     30  C   UNL     1      49.085  85.030  44.040  0.00  0.00    -0.000 A 
ATOM     31  C   UNL     1      50.410  85.368  44.185  0.00  0.00    -0.000 A 
ATOM     32  C   UNL     1      51.370  84.664  43.488  0.00  0.00    -0.000 A 
ATOM     33  C   UNL     1      51.042  83.623  42.644  0.00  0.00    -0.004 A 
ENDBRANCH  27  28
ENDBRANCH  26  27
ENDBRANCH  20  26
ENDBRANCH  19  20
ENDBRANCH   1  19
TORSDOF 12
