REMARK  Name = Delafloxacin_Meglumine
REMARK  9 active torsions:
REMARK  status: ('A' for Active; 'I' for Inactive)
REMARK    1  A    between atoms: N_2  and  C_3
REMARK    2  A    between atoms: C_3  and  C_4
REMARK    3  A    between atoms: C_4  and  C_5
REMARK    4  A    between atoms: C_5  and  C_6
REMARK    5  A    between atoms: C_6  and  C_7
REMARK    6  A    between atoms: C_7  and  C_8
REMARK    7  A    between atoms: N_17  and  C_18
REMARK    8  A    between atoms: N_25  and  C_33
REMARK    9  A    between atoms: C_27  and  C_30
REMARK                            x       y       z     vdW  Elec       q    Type
REMARK                         _______ _______ _______ _____ _____    ______ ____
ROOT
ATOM      1  C   UNL     1      46.197  79.582  42.115  0.00  0.00    +0.216 C 
ATOM      2  O   UNL     1      45.755  79.859  43.387  0.00  0.00    -0.218 OA
ENDROOT
BRANCH   1   3
ATOM      3  C   UNL     1      47.283  80.539  41.734  0.00  0.00    +0.202 C 
ATOM      4  O   UNL     1      47.893  80.268  40.541  0.00  0.00    -0.219 OA
BRANCH   3   5
ATOM      5  C   UNL     1      46.874  81.975  41.800  0.00  0.00    +0.124 C 
BRANCH   5   7
ATOM      6  C   UNL     1      47.635  84.274  41.638  0.00  0.00    +0.108 C 
ATOM      7  N   UNL     1      47.963  82.890  41.668  0.00  0.00    -0.214 NA
ENDBRANCH   5   7
ENDBRANCH   3   5
ENDBRANCH   1   3
BRANCH   1   8
ATOM      8  C   UNL     1      46.637  78.133  42.052  0.00  0.00    +0.217 C 
ATOM      9  O   UNL     1      47.934  78.078  42.488  0.00  0.00    -0.217 OA
BRANCH   8  10
ATOM     10  C   UNL     1      45.652  77.364  42.849  0.00  0.00    +0.217 C 
ATOM     11  O   UNL     1      44.379  77.606  42.303  0.00  0.00    -0.217 OA
BRANCH  10  12
ATOM     12  C   UNL     1      45.844  75.890  42.894  0.00  0.00    +0.217 C 
ATOM     13  O   UNL     1      44.685  75.338  43.465  0.00  0.00    -0.217 OA
ENDBRANCH  10  12
ENDBRANCH   8  10
ENDBRANCH   1   8
TORSDOF 6
REMARK  Name = Delafloxacin_Meglumine
REMARK  9 active torsions:
REMARK  status: ('A' for Active; 'I' for Inactive)
REMARK    1  A    between atoms: N_2  and  C_3
REMARK    2  A    between atoms: C_3  and  C_4
REMARK    3  A    between atoms: C_4  and  C_5
REMARK    4  A    between atoms: C_5  and  C_6
REMARK    5  A    between atoms: C_6  and  C_7
REMARK    6  A    between atoms: C_7  and  C_8
REMARK    7  A    between atoms: N_17  and  C_18
REMARK    8  A    between atoms: N_25  and  C_33
REMARK    9  A    between atoms: C_27  and  C_30
REMARK                            x       y       z     vdW  Elec       q    Type
REMARK                         _______ _______ _______ _____ _____    ______ ____
ROOT
ATOM      1  C   UNL     1      45.571  77.396  41.972  0.00  0.00    +0.088 A 
ATOM      2  C   UNL     1      44.469  77.349  41.148  0.00  0.00    +0.154 A 
ATOM      3  C   UNL     1      44.264  78.341  40.215  0.00  0.00    +0.036 A 
ATOM      4  C   UNL     1      45.181  79.369  40.131  0.00  0.00    +0.058 A 
ATOM      5  C   UNL     1      46.303  79.442  40.950  0.00  0.00    +0.080 A 
ATOM      6  C   UNL     1      46.474  78.435  41.868  0.00  0.00    +0.089 A 
ATOM      7 CL   UNL     1      47.832  78.407  42.951  0.00  0.00    -0.079 Cl
ATOM      8  N   UNL     1      47.183  80.440  40.861  0.00  0.00    -0.287 N 
ATOM      9  C   UNL     1      46.911  81.386  39.912  0.00  0.00    +0.091 A 
ATOM     10  C   UNL     1      45.833  81.370  39.082  0.00  0.00    +0.136 A 
ATOM     11  C   UNL     1      44.934  80.333  39.187  0.00  0.00    +0.205 A 
ATOM     12  O   UNL     1      43.935  80.312  38.423  0.00  0.00    -0.286 OA
ATOM     13  F   UNL     1      43.593  76.342  41.247  0.00  0.00    -0.203 F 
ENDROOT
BRANCH   8  14
ATOM     14  C   UNL     1      48.346  80.570  41.668  0.00  0.00    +0.177 A 
ATOM     15  C   UNL     1      49.513  80.962  41.076  0.00  0.00    +0.177 A 
ATOM     16  C   UNL     1      50.650  81.055  41.841  0.00  0.00    +0.065 A 
ATOM     17  C   UNL     1      50.572  80.750  43.180  0.00  0.00    +0.177 A 
ATOM     18  C   UNL     1      49.395  80.355  43.780  0.00  0.00    +0.199 A 
ATOM     19  N   UNL     1      48.321  80.285  42.969  0.00  0.00    -0.205 NA
ATOM     20  N   UNL     1      49.347  80.048  45.160  0.00  0.00    -0.105 NA
ATOM     21  F   UNL     1      51.682  80.828  43.991  0.00  0.00    -0.201 F 
ATOM     22  F   UNL     1      49.607  81.269  39.746  0.00  0.00    -0.201 F 
ENDBRANCH   8  14
BRANCH   1  26
ATOM     23  C   UNL     1      46.866  75.512  43.253  0.00  0.00    +0.126 C 
ATOM     24  C   UNL     1      46.066  74.824  44.340  0.00  0.00    +0.191 C 
ATOM     25  C   UNL     1      44.949  75.761  43.935  0.00  0.00    +0.126 C 
ATOM     26  N   UNL     1      45.761  76.373  42.917  0.00  0.00    -0.300 N 
ATOM     27  O   UNL     1      46.502  75.080  45.618  0.00  0.00    -0.219 OA
ENDBRANCH   1  26
BRANCH  10  28
ATOM     28  C   UNL     1      45.615  82.433  38.084  0.00  0.00    +0.392 C 
ATOM     29  O   UNL     1      44.657  82.332  37.279  0.00  0.00    -0.240 OA
ATOM     30  O   UNL     1      46.470  83.504  38.067  0.00  0.00    -0.240 OA
ENDBRANCH  10  28
TORSDOF 3
