REMARK  Name = Delavirdine
REMARK  6 active torsions:
REMARK  status: ('A' for Active; 'I' for Inactive)
REMARK    1  A    between atoms: C_2  and  N_4
REMARK    2  A    between atoms: N_4  and  C_5
REMARK    3  A    between atoms: C_6  and  N_11
REMARK    4  A    between atoms: C_17  and  C_19
REMARK    5  A    between atoms: C_26  and  N_28
REMARK    6  A    between atoms: N_28  and  S_29
REMARK                            x       y       z     vdW  Elec       q    Type
REMARK                         _______ _______ _______ _____ _____    ______ ____
ROOT
ATOM      1  N   UNL     1      48.553  82.308  41.091  0.00  0.00    -0.289 N 
ATOM      2  C   UNL     1      48.654  82.735  39.723  0.00  0.00    +0.114 C 
ATOM      3  C   UNL     1      47.884  81.789  38.816  0.00  0.00    +0.115 C 
ATOM      4  N   UNL     1      46.816  81.174  39.603  0.00  0.00    -0.271 N 
ATOM      5  C   UNL     1      47.250  80.329  40.696  0.00  0.00    +0.115 C 
ATOM      6  C   UNL     1      48.474  80.923  41.417  0.00  0.00    +0.114 C 
ATOM      7  C   UNL     1      45.436  81.365  39.333  0.00  0.00    +0.267 C 
ATOM      8  O   UNL     1      45.025  82.542  39.168  0.00  0.00    -0.268 OA
ENDROOT
BRANCH   7   9
ATOM      9  C   UNL     1      44.466  80.261  39.237  0.00  0.00    +0.135 A 
ATOM     10  C   UNL     1      44.328  79.236  40.185  0.00  0.00    +0.025 A 
ATOM     11  C   UNL     1      43.325  78.397  39.770  0.00  0.00    +0.021 A 
ATOM     12  C   UNL     1      42.844  78.896  38.573  0.00  0.00    +0.082 A 
ATOM     13  N   UNL     1      43.552  80.004  38.297  0.00  0.00    -0.241 NA
ATOM     14  C   UNL     1      41.807  78.226  37.931  0.00  0.00    +0.020 A 
ATOM     15  C   UNL     1      41.236  77.082  38.437  0.00  0.00    +0.020 A 
ATOM     16  C   UNL     1      41.717  76.580  39.634  0.00  0.00    +0.091 A 
ATOM     17  C   UNL     1      42.748  77.248  40.273  0.00  0.00    +0.020 A 
BRANCH  16  18
ATOM     18  N   UNL     1      41.135  75.393  40.169  0.00  0.00    -0.101 NA
BRANCH  18  19
ATOM     19  S   UNL     1      42.156  74.114  40.691  0.00  0.00    +0.075 S 
ATOM     20  O   UNL     1      42.094  74.025  42.180  0.00  0.00    -0.153 OA
ATOM     21  O   UNL     1      41.788  72.786  40.054  0.00  0.00    -0.153 OA
ATOM     22  C   UNL     1      43.850  74.421  40.228  0.00  0.00    +0.202 C 
ENDBRANCH  18  19
ENDBRANCH  16  18
ENDBRANCH   7   9
BRANCH   1  24
ATOM     23  C   UNL     1      49.597  83.934  42.631  0.00  0.00    +0.097 A 
ATOM     24  C   UNL     1      48.492  83.297  42.130  0.00  0.00    +0.147 A 
ATOM     25  N   UNL     1      47.274  83.584  42.662  0.00  0.00    -0.228 NA
ATOM     26  C   UNL     1      47.168  84.464  43.648  0.00  0.00    +0.100 A 
ATOM     27  C   UNL     1      48.244  85.131  44.189  0.00  0.00    +0.022 A 
ATOM     28  C   UNL     1      49.477  84.850  43.660  0.00  0.00    +0.021 A 
BRANCH  23  29
ATOM     29  N   UNL     1      50.894  83.713  42.100  0.00  0.00    -0.237 NA
BRANCH  29  31
ATOM     30  C   UNL     1      51.539  81.603  43.161  0.00  0.00    +0.023 C 
ATOM     31  C   UNL     1      51.941  83.024  42.819  0.00  0.00    +0.093 C 
ATOM     32  C   UNL     1      53.250  82.981  42.074  0.00  0.00    +0.023 C 
ENDBRANCH  29  31
ENDBRANCH  23  29
ENDBRANCH   1  24
TORSDOF 6
