REMARK  Name = Delamanid
REMARK  9 active torsions:
REMARK  status: ('A' for Active; 'I' for Inactive)
REMARK    1  A    between atoms: C_2  and  C_13
REMARK    2  A    between atoms: C_6  and  N_10
REMARK    3  A    between atoms: C_13  and  O_14
REMARK    4  A    between atoms: O_14  and  C_15
REMARK    5  A    between atoms: C_18  and  N_21
REMARK    6  A    between atoms: C_24  and  O_27
REMARK    7  A    between atoms: O_27  and  C_28
REMARK    8  A    between atoms: C_31  and  O_34
REMARK    9  A    between atoms: O_34  and  C_35
REMARK                            x       y       z     vdW  Elec       q    Type
REMARK                         _______ _______ _______ _____ _____    ______ ____
ROOT
ATOM      1  C   UNL     1      41.159  77.550  38.123  0.00  0.00    +0.139 A 
ATOM      2  C   UNL     1      41.532  78.784  37.630  0.00  0.00    +0.038 A 
ATOM      3  C   UNL     1      42.575  79.496  38.178  0.00  0.00    +0.018 A 
ATOM      4  C   UNL     1      43.300  79.009  39.249  0.00  0.00    +0.048 A 
ATOM      5  C   UNL     1      42.925  77.768  39.745  0.00  0.00    +0.018 A 
ATOM      6  C   UNL     1      41.880  77.065  39.188  0.00  0.00    +0.038 A 
ENDROOT
BRANCH   4   7
ATOM      7  N   UNL     1      44.352  79.757  39.788  0.00  0.00    -0.307 N 
ATOM      8  C   UNL     1      45.420  80.220  38.947  0.00  0.00    +0.094 C 
ATOM      9  C   UNL     1      46.093  81.460  39.524  0.00  0.00    +0.065 C 
ATOM     10  C   UNL     1      46.583  81.234  40.939  0.00  0.00    +0.169 C 
ATOM     11  C   UNL     1      45.858  80.074  41.596  0.00  0.00    +0.065 C 
ATOM     12  C   UNL     1      44.374  80.065  41.201  0.00  0.00    +0.094 C 
BRANCH  10  13
ATOM     13  O   UNL     1      47.951  80.951  40.891  0.00  0.00    -0.479 OA
BRANCH  13  14
ATOM     14  C   UNL     1      48.949  81.658  41.510  0.00  0.00    +0.139 A 
ATOM     15  C   UNL     1      48.622  82.530  42.559  0.00  0.00    +0.040 A 
ATOM     16  C   UNL     1      49.566  83.273  43.228  0.00  0.00    +0.040 A 
ATOM     17  C   UNL     1      50.899  83.190  42.890  0.00  0.00    +0.147 A 
ATOM     18  C   UNL     1      51.237  82.338  41.861  0.00  0.00    +0.040 A 
ATOM     19  C   UNL     1      50.287  81.585  41.183  0.00  0.00    +0.040 A 
BRANCH  17  20
ATOM     20  O   UNL     1      51.851  83.943  43.569  0.00  0.00    -0.404 OA
BRANCH  20  21
ATOM     21  C   UNL     1      52.044  85.277  43.090  0.00  0.00    +0.575 C 
ATOM     22  F   UNL     1      50.892  86.021  43.173  0.00  0.00    -0.133 F 
ATOM     23  F   UNL     1      52.480  85.289  41.794  0.00  0.00    -0.133 F 
ATOM     24  F   UNL     1      53.050  85.820  43.873  0.00  0.00    -0.133 F 
ENDBRANCH  20  21
ENDBRANCH  17  20
ENDBRANCH  13  14
ENDBRANCH  10  13
ENDBRANCH   4   7
BRANCH   1  25
ATOM     25  O   UNL     1      40.096  76.816  37.571  0.00  0.00    -0.472 OA
BRANCH  25  26
ATOM     26  C   UNL     1      38.811  77.400  37.656  0.00  0.00    +0.247 C 
BRANCH  26  28
ATOM     27  C   UNL     1      36.796  76.257  38.413  0.00  0.00    +0.050 C 
ATOM     28  C   UNL     1      37.820  76.293  37.294  0.00  0.00    +0.197 C 
ATOM     29  C   UNL     1      37.199  76.488  35.954  0.00  0.00    +0.154 C 
ATOM     30  N   UNL     1      37.693  75.382  35.154  0.00  0.00    -0.275 N 
ATOM     31  C   UNL     1      37.647  74.859  33.894  0.00  0.00    +0.124 A 
ATOM     32  C   UNL     1      38.429  73.698  33.884  0.00  0.00    +0.245 A 
ATOM     33  N   UNL     1      38.898  73.593  35.137  0.00  0.00    -0.170 NA
ATOM     34  C   UNL     1      38.464  74.600  35.919  0.00  0.00    +0.302 A 
ATOM     35  O   UNL     1      38.542  75.101  37.231  0.00  0.00    -0.449 OA
BRANCH  32  36
ATOM     36  N   UNL     1      38.661  72.837  32.781  0.00  0.00    +0.077 N 
ATOM     37  O   UNL     1      39.069  71.687  32.962  0.00  0.00    -0.125 OA
ATOM     38  O   UNL     1      38.428  73.291  31.519  0.00  0.00    -0.125 OA
ENDBRANCH  32  36
ENDBRANCH  26  28
ENDBRANCH  25  26
ENDBRANCH   1  25
TORSDOF 9
