REMARK  Name = Delorazepam
REMARK  1 active torsions:
REMARK  status: ('A' for Active; 'I' for Inactive)
REMARK    1  A    between atoms: C_12  and  C_14
REMARK                            x       y       z     vdW  Elec       q    Type
REMARK                         _______ _______ _______ _____ _____    ______ ____
ROOT
ATOM      1  C   UNL     1      47.154  82.583  38.584  0.00  0.00    +0.212 C 
ATOM      2  C   UNL     1      45.767  82.109  38.578  0.00  0.00    +0.270 C 
ATOM      3  O   UNL     1      45.036  82.656  37.713  0.00  0.00    -0.271 OA
ATOM      4  N   UNL     1      45.079  81.133  39.375  0.00  0.00    -0.177 NA
ATOM      5  C   UNL     1      45.684  80.359  40.406  0.00  0.00    +0.075 A 
ATOM      6  C   UNL     1      46.881  80.617  41.059  0.00  0.00    +0.033 A 
ATOM      7  C   UNL     1      47.326  79.762  42.038  0.00  0.00    +0.014 A 
ATOM      8  C   UNL     1      46.564  78.657  42.350  0.00  0.00    +0.058 A 
ATOM      9  C   UNL     1      45.362  78.390  41.699  0.00  0.00    +0.013 A 
ATOM     10  C   UNL     1      44.921  79.257  40.714  0.00  0.00    +0.018 A 
ATOM     11 CL   UNL     1      47.076  77.537  43.581  0.00  0.00    -0.082 Cl
ATOM     12  C   UNL     1      47.800  81.726  40.857  0.00  0.00    +0.079 C 
ATOM     13  N   UNL     1      47.843  82.474  39.819  0.00  0.00    -0.260 NA
ENDROOT
BRANCH  12  14
ATOM     14  C   UNL     1      48.746  82.004  41.919  0.00  0.00    +0.028 A 
ATOM     15  C   UNL     1      49.970  81.384  41.935  0.00  0.00    +0.002 A 
ATOM     16  C   UNL     1      50.900  81.630  42.943  0.00  0.00    +0.000 A 
ATOM     17  C   UNL     1      50.579  82.514  43.938  0.00  0.00    +0.001 A 
ATOM     18  C   UNL     1      49.345  83.130  43.908  0.00  0.00    +0.011 A 
ATOM     19  C   UNL     1      48.416  82.893  42.915  0.00  0.00    +0.059 A 
ATOM     20 CL   UNL     1      46.853  83.716  42.936  0.00  0.00    -0.082 Cl
ENDBRANCH  12  14
TORSDOF 1
