REMARK  Name = Demecarium_bromide
REMARK  17 active torsions:
REMARK  status: ('A' for Active; 'I' for Inactive)
REMARK    1  A    between atoms: N_2  and  C_3
REMARK    2  A    between atoms: C_3  and  C_4
REMARK    3  A    between atoms: C_4  and  C_5
REMARK    4  A    between atoms: C_5  and  C_6
REMARK    5  A    between atoms: C_6  and  C_7
REMARK    6  A    between atoms: C_7  and  C_8
REMARK    7  A    between atoms: C_8  and  C_9
REMARK    8  A    between atoms: C_9  and  C_10
REMARK    9  A    between atoms: C_10  and  C_11
REMARK   10  A    between atoms: C_11  and  C_12
REMARK   11  A    between atoms: C_12  and  N_13
REMARK   12  A    between atoms: C_15  and  O_17
REMARK   13  A    between atoms: O_17  and  C_18
REMARK   14  A    between atoms: C_22  and  N_24
REMARK   15  A    between atoms: C_28  and  O_30
REMARK   16  A    between atoms: O_30  and  C_31
REMARK   17  A    between atoms: C_35  and  N_37
REMARK                            x       y       z     vdW  Elec       q    Type
REMARK                         _______ _______ _______ _____ _____    ______ ____
ROOT
ATOM      1  C   UNL     1      48.038  81.745  42.507  0.00  0.00    +0.000 C 
ENDROOT
BRANCH   1   2
ATOM      2  C   UNL     1      47.628  80.432  41.913  0.00  0.00    +0.000 C 
BRANCH   2   3
ATOM      3  C   UNL     1      46.438  80.617  40.979  0.00  0.00    +0.000 C 
BRANCH   3   4
ATOM      4  C   UNL     1      46.110  79.245  40.447  0.00  0.00    +0.002 C 
BRANCH   4   5
ATOM      5  C   UNL     1      44.970  79.328  39.495  0.00  0.00    +0.022 C 
BRANCH   5   6
ATOM      6  C   UNL     1      43.751  79.879  40.196  0.00  0.00    +0.097 C 
BRANCH   6   7
ATOM      7  N   UNL     1      42.700  79.908  39.178  0.00  0.00    -0.244 N 
ATOM      8  C   UNL     1      42.566  81.100  38.380  0.00  0.00    +0.118 C 
ATOM      9  C   UNL     1      41.834  78.803  38.976  0.00  0.00    +0.409 C 
ATOM     10  O   UNL     1      41.985  77.793  39.707  0.00  0.00    -0.226 OA
BRANCH   9  11
ATOM     11  O   UNL     1      40.838  78.779  38.025  0.00  0.00    -0.410 OA
BRANCH  11  12
ATOM     12  C   UNL     1      39.977  77.732  37.796  0.00  0.00    +0.151 A 
ATOM     13  C   UNL     1      40.365  76.718  36.953  0.00  0.00    +0.038 A 
ATOM     14  C   UNL     1      39.539  75.635  36.683  0.00  0.00    +0.004 A 
ATOM     15  C   UNL     1      38.282  75.578  37.286  0.00  0.00    +0.013 A 
ATOM     16  C   UNL     1      37.885  76.574  38.122  0.00  0.00    +0.037 A 
ATOM     17  C   UNL     1      38.736  77.655  38.378  0.00  0.00    +0.051 A 
BRANCH  16  18
ATOM     18  N   UNL     1      36.615  76.551  38.753  0.00  0.00    -0.351 NA
ATOM     19  C   UNL     1      36.023  77.866  38.489  0.00  0.00    +0.096 C 
ATOM     20  C   UNL     1      35.781  75.488  38.274  0.00  0.00    +0.096 C 
ATOM     21  C   UNL     1      36.788  76.413  40.184  0.00  0.00    +0.096 C 
ENDBRANCH  16  18
ENDBRANCH  11  12
ENDBRANCH   9  11
ENDBRANCH   6   7
ENDBRANCH   5   6
ENDBRANCH   4   5
ENDBRANCH   3   4
ENDBRANCH   2   3
ENDBRANCH   1   2
BRANCH   1  22
ATOM     22  C   UNL     1      48.424  82.745  41.468  0.00  0.00    +0.000 C 
BRANCH  22  23
ATOM     23  C   UNL     1      49.565  82.267  40.640  0.00  0.00    +0.002 C 
BRANCH  23  24
ATOM     24  C   UNL     1      50.828  81.976  41.378  0.00  0.00    +0.022 C 
BRANCH  24  25
ATOM     25  C   UNL     1      51.398  83.162  42.112  0.00  0.00    +0.097 C 
BRANCH  25  27
ATOM     26  C   UNL     1      53.865  82.859  42.059  0.00  0.00    +0.118 C 
ATOM     27  N   UNL     1      52.611  82.746  42.762  0.00  0.00    -0.244 N 
ATOM     28  C   UNL     1      52.563  82.230  44.076  0.00  0.00    +0.409 C 
ATOM     29  O   UNL     1      51.491  82.117  44.730  0.00  0.00    -0.226 OA
BRANCH  28  30
ATOM     30  O   UNL     1      53.717  81.806  44.751  0.00  0.00    -0.410 OA
BRANCH  30  31
ATOM     31  C   UNL     1      53.662  81.300  46.040  0.00  0.00    +0.151 A 
ATOM     32  C   UNL     1      53.447  79.957  46.310  0.00  0.00    +0.038 A 
ATOM     33  C   UNL     1      53.395  79.465  47.600  0.00  0.00    +0.004 A 
ATOM     34  C   UNL     1      53.562  80.326  48.682  0.00  0.00    +0.013 A 
ATOM     35  C   UNL     1      53.777  81.667  48.446  0.00  0.00    +0.037 A 
ATOM     36  C   UNL     1      53.822  82.113  47.164  0.00  0.00    +0.051 A 
BRANCH  35  37
ATOM     37  N   UNL     1      53.955  82.588  49.537  0.00  0.00    -0.351 NA
ATOM     38  C   UNL     1      54.092  81.898  50.789  0.00  0.00    +0.096 C 
ATOM     39  C   UNL     1      52.870  83.548  49.542  0.00  0.00    +0.096 C 
ATOM     40  C   UNL     1      55.172  83.345  49.220  0.00  0.00    +0.096 C 
ENDBRANCH  35  37
ENDBRANCH  30  31
ENDBRANCH  28  30
ENDBRANCH  25  27
ENDBRANCH  24  25
ENDBRANCH  23  24
ENDBRANCH  22  23
ENDBRANCH   1  22
TORSDOF 17
REMARK  Name = Demecarium_bromide
REMARK  17 active torsions:
REMARK  status: ('A' for Active; 'I' for Inactive)
REMARK    1  A    between atoms: N_2  and  C_3
REMARK    2  A    between atoms: C_3  and  C_4
REMARK    3  A    between atoms: C_4  and  C_5
REMARK    4  A    between atoms: C_5  and  C_6
REMARK    5  A    between atoms: C_6  and  C_7
REMARK    6  A    between atoms: C_7  and  C_8
REMARK    7  A    between atoms: C_8  and  C_9
REMARK    8  A    between atoms: C_9  and  C_10
REMARK    9  A    between atoms: C_10  and  C_11
REMARK   10  A    between atoms: C_11  and  C_12
REMARK   11  A    between atoms: C_12  and  N_13
REMARK   12  A    between atoms: C_15  and  O_17
REMARK   13  A    between atoms: O_17  and  C_18
REMARK   14  A    between atoms: C_22  and  N_24
REMARK   15  A    between atoms: C_28  and  O_30
REMARK   16  A    between atoms: O_30  and  C_31
REMARK   17  A    between atoms: C_35  and  N_37
REMARK                            x       y       z     vdW  Elec       q    Type
REMARK                         _______ _______ _______ _____ _____    ______ ____
ROOT
ATOM      1 BR   UNL     1      46.746  80.172  42.222  0.00  0.00    +0.000 Br
ENDROOT
TORSDOF 0
REMARK  Name = Demecarium_bromide
REMARK  17 active torsions:
REMARK  status: ('A' for Active; 'I' for Inactive)
REMARK    1  A    between atoms: N_2  and  C_3
REMARK    2  A    between atoms: C_3  and  C_4
REMARK    3  A    between atoms: C_4  and  C_5
REMARK    4  A    between atoms: C_5  and  C_6
REMARK    5  A    between atoms: C_6  and  C_7
REMARK    6  A    between atoms: C_7  and  C_8
REMARK    7  A    between atoms: C_8  and  C_9
REMARK    8  A    between atoms: C_9  and  C_10
REMARK    9  A    between atoms: C_10  and  C_11
REMARK   10  A    between atoms: C_11  and  C_12
REMARK   11  A    between atoms: C_12  and  N_13
REMARK   12  A    between atoms: C_15  and  O_17
REMARK   13  A    between atoms: O_17  and  C_18
REMARK   14  A    between atoms: C_22  and  N_24
REMARK   15  A    between atoms: C_28  and  O_30
REMARK   16  A    between atoms: O_30  and  C_31
REMARK   17  A    between atoms: C_35  and  N_37
REMARK                            x       y       z     vdW  Elec       q    Type
REMARK                         _______ _______ _______ _____ _____    ______ ____
ROOT
ATOM      1 BR   UNL     1      46.746  80.172  42.222  0.00  0.00    +0.000 Br
ENDROOT
TORSDOF 0
