REMARK  Name = Demeclocycline
REMARK  2 active torsions:
REMARK  status: ('A' for Active; 'I' for Inactive)
REMARK    1  A    between atoms: N_2  and  C_4
REMARK    2  A    between atoms: C_21  and  C_24
REMARK                            x       y       z     vdW  Elec       q    Type
REMARK                         _______ _______ _______ _____ _____    ______ ____
ROOT
ATOM      1  C   UNL     1      43.530  77.577  41.132  0.00  0.00    +0.124 C 
ATOM      2  C   UNL     1      44.617  78.405  40.562  0.00  0.00    +0.065 C 
ATOM      3  C   UNL     1      45.537  79.056  41.528  0.00  0.00    +0.013 C 
ATOM      4  C   UNL     1      46.728  79.642  40.763  0.00  0.00    +0.063 C 
ATOM      5  C   UNL     1      47.792  80.146  41.646  0.00  0.00    +0.179 C 
ATOM      6  C   UNL     1      48.466  81.377  41.230  0.00  0.00    +0.025 A 
ATOM      7  C   UNL     1      49.631  81.764  41.890  0.00  0.00    +0.056 A 
ATOM      8  C   UNL     1      50.203  82.952  41.530  0.00  0.00    +0.014 A 
ATOM      9  C   UNL     1      49.707  83.787  40.563  0.00  0.00    +0.043 A 
ATOM     10  C   UNL     1      48.542  83.354  39.931  0.00  0.00    +0.199 A 
ATOM     11  C   UNL     1      47.930  82.174  40.252  0.00  0.00    +0.077 A 
ATOM     12  C   UNL     1      46.745  81.762  39.481  0.00  0.00    +0.197 C 
ATOM     13  C   UNL     1      46.220  80.583  39.757  0.00  0.00    +0.057 C 
ATOM     14  C   UNL     1      44.992  80.227  38.991  0.00  0.00    +0.207 C 
ATOM     15  O   UNL     1      44.911  80.590  37.795  0.00  0.00    -0.289 OA
ATOM     16  C   UNL     1      43.941  79.463  39.702  0.00  0.00    +0.237 C 
ATOM     17  C   UNL     1      43.022  78.832  38.716  0.00  0.00    +0.215 C 
ATOM     18  C   UNL     1      42.511  77.635  38.848  0.00  0.00    +0.130 C 
ATOM     19  C   UNL     1      42.847  76.847  40.027  0.00  0.00    +0.195 C 
ATOM     20  O   UNL     1      42.567  75.650  40.070  0.00  0.00    -0.290 OA
ATOM     21  O   UNL     1      42.703  79.594  37.586  0.00  0.00    -0.288 OA
ATOM     22  O   UNL     1      43.270  80.317  40.555  0.00  0.00    -0.210 OA
ATOM     23  O   UNL     1      46.232  82.620  38.504  0.00  0.00    -0.287 OA
ATOM     24  O   UNL     1      47.982  84.150  38.939  0.00  0.00    -0.286 OA
ATOM     25 CL   UNL     1      50.302  80.723  43.139  0.00  0.00    -0.082 Cl
ATOM     26  O   UNL     1      48.791  79.160  41.839  0.00  0.00    -0.218 OA
ENDROOT
BRANCH   1  28
ATOM     27  C   UNL     1      43.672  77.026  43.460  0.00  0.00    +0.090 C 
ATOM     28  N   UNL     1      43.867  76.724  42.124  0.00  0.00    -0.265 NA
ATOM     29  C   UNL     1      44.715  75.588  41.853  0.00  0.00    +0.090 C 
ENDBRANCH   1  28
BRANCH  18  30
ATOM     30  C   UNL     1      41.625  77.122  37.820  0.00  0.00    +0.290 C 
ATOM     31  O   UNL     1      40.947  76.106  38.061  0.00  0.00    -0.266 OA
ATOM     32  N   UNL     1      41.553  77.787  36.576  0.00  0.00    -0.084 NA
ENDBRANCH  18  30
TORSDOF 2
