REMARK  Name = Demecolcine
REMARK  5 active torsions:
REMARK  status: ('A' for Active; 'I' for Inactive)
REMARK    1  A    between atoms: N_2  and  C_3
REMARK    2  A    between atoms: C_8  and  O_26
REMARK    3  A    between atoms: C_9  and  O_24
REMARK    4  A    between atoms: C_10  and  O_22
REMARK    5  A    between atoms: C_15  and  O_20
REMARK                            x       y       z     vdW  Elec       q    Type
REMARK                         _______ _______ _______ _____ _____    ______ ____
ROOT
ATOM      1  C   UNL     1      45.870  77.628  41.757  0.00  0.00    +0.095 C 
ATOM      2  C   UNL     1      45.133  76.354  41.590  0.00  0.00    +0.027 C 
ATOM      3  C   UNL     1      43.623  76.452  41.887  0.00  0.00    +0.028 C 
ATOM      4  C   UNL     1      42.921  76.838  40.609  0.00  0.00    -0.016 A 
ATOM      5  C   UNL     1      41.889  76.062  40.225  0.00  0.00    +0.036 A 
ATOM      6  C   UNL     1      41.235  76.340  39.023  0.00  0.00    +0.175 A 
ATOM      7  C   UNL     1      41.649  77.413  38.222  0.00  0.00    +0.206 A 
ATOM      8  C   UNL     1      42.704  78.207  38.611  0.00  0.00    +0.175 A 
ATOM      9  C   UNL     1      43.308  77.909  39.785  0.00  0.00    +0.033 A 
ATOM     10  C   UNL     1      44.339  78.886  40.097  0.00  0.00    +0.000 A 
ATOM     11  C   UNL     1      43.779  80.041  39.589  0.00  0.00    +0.003 A 
ATOM     12  C   UNL     1      44.479  81.164  39.234  0.00  0.00    +0.040 A 
ATOM     13  C   UNL     1      45.841  81.454  39.312  0.00  0.00    +0.177 A 
ATOM     14  C   UNL     1      46.786  80.649  39.911  0.00  0.00    +0.229 A 
ATOM     15  O   UNL     1      47.978  81.039  39.743  0.00  0.00    -0.283 OA
ATOM     16  C   UNL     1      46.678  79.480  40.671  0.00  0.00    +0.042 A 
ATOM     17  C   UNL     1      45.557  78.692  40.778  0.00  0.00    -0.003 A 
ENDROOT
BRANCH   1  19
ATOM     18  C   UNL     1      47.661  76.957  43.219  0.00  0.00    +0.108 C 
ATOM     19  N   UNL     1      47.294  77.463  41.914  0.00  0.00    -0.214 NA
ENDBRANCH   1  19
BRANCH  13  20
ATOM     20  O   UNL     1      46.280  82.641  38.745  0.00  0.00    -0.468 OA
ATOM     21  C   UNL     1      47.153  83.456  39.502  0.00  0.00    +0.253 C 
ENDBRANCH  13  20
BRANCH   8  22
ATOM     22  O   UNL     1      43.117  79.248  37.817  0.00  0.00    -0.468 OA
ATOM     23  C   UNL     1      42.694  80.593  38.068  0.00  0.00    +0.253 C 
ENDBRANCH   8  22
BRANCH   7  24
ATOM     24  O   UNL     1      41.046  77.742  37.022  0.00  0.00    -0.465 OA
ATOM     25  C   UNL     1      39.716  78.276  37.102  0.00  0.00    +0.253 C 
ENDBRANCH   7  24
BRANCH   6  26
ATOM     26  O   UNL     1      40.167  75.572  38.587  0.00  0.00    -0.468 OA
ATOM     27  C   UNL     1      39.736  74.407  39.259  0.00  0.00    +0.253 C 
ENDBRANCH   6  26
TORSDOF 5
