REMARK  Name = Denopamine
REMARK  8 active torsions:
REMARK  status: ('A' for Active; 'I' for Inactive)
REMARK    1  A    between atoms: O_2  and  C_3
REMARK    2  A    between atoms: C_4  and  O_22
REMARK    3  A    between atoms: C_6  and  C_9
REMARK    4  A    between atoms: C_9  and  C_10
REMARK    5  A    between atoms: C_10  and  N_11
REMARK    6  A    between atoms: N_11  and  C_12
REMARK    7  A    between atoms: C_12  and  C_13
REMARK    8  A    between atoms: C_13  and  C_14
REMARK                            x       y       z     vdW  Elec       q    Type
REMARK                         _______ _______ _______ _____ _____    ______ ____
ROOT
ATOM      1  C   UNL     1      44.378  79.198  40.463  0.00  0.00    +0.093 C 
ENDROOT
BRANCH   1   2
ATOM      2  C   UNL     1      44.615  78.059  39.540  0.00  0.00    +0.045 C 
BRANCH   2   6
ATOM      3  C   UNL     1      40.868  76.752  38.035  0.00  0.00    +0.172 A 
ATOM      4  C   UNL     1      41.558  75.912  38.898  0.00  0.00    +0.172 A 
ATOM      5  C   UNL     1      42.771  76.342  39.382  0.00  0.00    +0.036 A 
ATOM      6  C   UNL     1      43.289  77.568  39.023  0.00  0.00    -0.018 A 
ATOM      7  C   UNL     1      42.575  78.366  38.169  0.00  0.00    -0.001 A 
ATOM      8  C   UNL     1      41.348  77.989  37.647  0.00  0.00    +0.040 A 
BRANCH   3  10
ATOM      9  C   UNL     1      38.518  76.075  38.358  0.00  0.00    +0.253 C 
ATOM     10  O   UNL     1      39.645  76.291  37.562  0.00  0.00    -0.468 OA
ENDBRANCH   3  10
BRANCH   4  11
ATOM     11  O   UNL     1      41.030  74.691  39.248  0.00  0.00    -0.468 OA
ATOM     12  C   UNL     1      40.520  74.464  40.542  0.00  0.00    +0.253 C 
ENDBRANCH   4  11
ENDBRANCH   2   6
ENDBRANCH   1   2
BRANCH   1  13
ATOM     13  N   UNL     1      44.543  80.505  40.049  0.00  0.00    -0.215 NA
BRANCH  13  14
ATOM     14  C   UNL     1      45.575  81.321  40.480  0.00  0.00    +0.126 C 
BRANCH  14  15
ATOM     15  C   UNL     1      46.628  81.782  39.534  0.00  0.00    +0.192 C 
ATOM     16  O   UNL     1      46.113  82.726  38.648  0.00  0.00    -0.217 OA
BRANCH  15  17
ATOM     17  C   UNL     1      47.677  82.506  40.380  0.00  0.00    +0.009 A 
ATOM     18  C   UNL     1      47.319  83.206  41.496  0.00  0.00    +0.001 A 
ATOM     19  C   UNL     1      48.299  83.848  42.227  0.00  0.00    +0.042 A 
ATOM     20  C   UNL     1      49.610  83.772  41.822  0.00  0.00    +0.196 A 
ATOM     21  C   UNL     1      49.943  83.058  40.692  0.00  0.00    +0.042 A 
ATOM     22  C   UNL     1      48.970  82.412  39.954  0.00  0.00    +0.001 A 
ATOM     23  O   UNL     1      50.584  84.408  42.546  0.00  0.00    -0.287 OA
ENDBRANCH  15  17
ENDBRANCH  14  15
ENDBRANCH  13  14
ENDBRANCH   1  13
TORSDOF 8
