REMARK  Name = DEOXYCYTIDINE
REMARK  2 active torsions:
REMARK  status: ('A' for Active; 'I' for Inactive)
REMARK    1  A    between atoms: C4*_3  and  C5*_14
REMARK    2  A    between atoms: C1*_5  and  N1_6
REMARK                            x       y       z     vdW  Elec       q    Type
REMARK                         _______ _______ _______ _____ _____    ______ ____
ROOT
ATOM      1  C2*   C A   1      43.662  78.717  39.845  0.00  0.00    +0.089 C 
ATOM      2  C3*   C A   1      43.544  78.013  41.177  0.00  0.00    +0.186 C 
ATOM      3  C4*   C A   1      44.816  77.237  41.251  0.00  0.00    +0.180 C 
ATOM      4  O4*   C A   1      45.752  77.975  40.570  0.00  0.00    -0.332 OA
ATOM      5  C1*   C A   1      45.132  78.707  39.595  0.00  0.00    +0.211 C 
ATOM      6  O3*   C A   1      42.409  77.240  41.286  0.00  0.00    -0.220 OA
ENDROOT
BRANCH   5   7
ATOM      7  N1    C A   1      45.715  80.039  39.596  0.00  0.00    -0.256 N 
ATOM      8  C6    C A   1      46.696  80.374  40.458  0.00  0.00    +0.085 A 
ATOM      9  C5    C A   1      47.238  81.641  40.446  0.00  0.00    +0.057 A 
ATOM     10  C4    C A   1      46.767  82.570  39.539  0.00  0.00    +0.176 A 
ATOM     11  N3    C A   1      45.788  82.172  38.707  0.00  0.00    -0.174 NA
ATOM     12  C2    C A   1      45.256  80.944  38.712  0.00  0.00    +0.353 A 
ATOM     13  O2    C A   1      44.335  80.592  37.919  0.00  0.00    -0.244 OA
ATOM     14  N4    C A   1      47.299  83.902  39.487  0.00  0.00    -0.107 NA
ENDBRANCH   5   7
BRANCH   3  15
ATOM     15  C5*   C A   1      44.703  75.887  40.556  0.00  0.00    +0.214 C 
ATOM     16  O5*   C A   1      45.646  75.772  39.559  0.00  0.00    -0.218 OA
ENDBRANCH   3  15
TORSDOF 2
