REMARK  Name = Dermatan_sulfate
REMARK  7 active torsions:
REMARK  status: ('A' for Active; 'I' for Inactive)
REMARK    1  A    between atoms: N_4  and  C_5
REMARK    2  A    between atoms: C_6  and  O_19
REMARK    3  A    between atoms: C_7  and  O_14
REMARK    4  A    between atoms: C_8  and  C_12
REMARK    5  A    between atoms: O_14  and  S_15
REMARK    6  A    between atoms: O_19  and  C_20
REMARK    7  A    between atoms: C_24  and  C_26
REMARK                            x       y       z     vdW  Elec       q    Type
REMARK                         _______ _______ _______ _____ _____    ______ ____
ROOT
ATOM      1  C   UNL     1      44.935  80.243  40.057  0.00  0.00    +0.184 C 
ATOM      2  C   UNL     1      46.168  79.526  40.617  0.00  0.00    +0.175 C 
ATOM      3  C   UNL     1      47.417  80.260  40.256  0.00  0.00    +0.206 C 
ATOM      4  C   UNL     1      47.159  81.735  40.431  0.00  0.00    +0.183 C 
ATOM      5  O   UNL     1      46.120  82.227  39.717  0.00  0.00    -0.324 OA
ATOM      6  C   UNL     1      45.320  81.298  39.081  0.00  0.00    +0.292 C 
ATOM      7  O   UNL     1      45.948  80.841  37.951  0.00  0.00    -0.188 OA
ENDROOT
BRANCH   1  11
ATOM      8  C   UNL     1      42.364  78.413  37.854  0.00  0.00    +0.096 C 
ATOM      9  C   UNL     1      42.903  79.440  38.785  0.00  0.00    +0.242 C 
ATOM     10  O   UNL     1      42.327  80.537  38.878  0.00  0.00    -0.273 OA
ATOM     11  N   UNL     1      44.046  79.246  39.584  0.00  0.00    -0.199 NA
ENDBRANCH   1  11
BRANCH   4  12
ATOM     12  C   UNL     1      47.023  82.109  41.895  0.00  0.00    +0.214 C 
ATOM     13  O   UNL     1      48.033  82.994  42.289  0.00  0.00    -0.218 OA
ENDBRANCH   4  12
BRANCH   3  14
ATOM     14  O   UNL     1      48.483  79.940  41.095  0.00  0.00    -0.198 OA
BRANCH  14  15
ATOM     15  S   UNL     1      48.718  81.124  42.262  0.00  0.00    +0.239 S 
ATOM     16  O   UNL     1      50.136  81.155  42.721  0.00  0.00    -0.116 OA
ATOM     17  O   UNL     1      47.850  80.855  43.480  0.00  0.00    -0.116 OA
ATOM     18  O   UNL     1      48.290  82.652  41.711  0.00  0.00    -0.022 OA
ENDBRANCH  14  15
ENDBRANCH   3  14
BRANCH   2  19
ATOM     19  O   UNL     1      46.162  78.183  40.234  0.00  0.00    -0.326 OA
BRANCH  19  20
ATOM     20  C   UNL     1      45.900  77.309  41.264  0.00  0.00    +0.270 C 
ATOM     21  C   UNL     1      46.593  75.993  41.043  0.00  0.00    +0.241 C 
ATOM     22  C   UNL     1      45.837  74.853  41.690  0.00  0.00    +0.220 C 
ATOM     23  C   UNL     1      45.224  75.366  42.975  0.00  0.00    +0.223 C 
ATOM     24  C   UNL     1      44.293  76.524  42.719  0.00  0.00    +0.253 C 
ATOM     25  O   UNL     1      44.533  77.151  41.498  0.00  0.00    -0.317 OA
ATOM     26  O   UNL     1      44.501  74.372  43.631  0.00  0.00    -0.217 OA
ATOM     27  O   UNL     1      44.800  74.507  40.825  0.00  0.00    -0.217 OA
ATOM     28  O   UNL     1      47.842  76.047  41.659  0.00  0.00    -0.215 OA
BRANCH  24  29
ATOM     29  C   UNL     1      44.554  77.544  43.774  0.00  0.00    +0.394 C 
ATOM     30  O   UNL     1      44.194  78.739  43.666  0.00  0.00    -0.243 OA
ATOM     31  O   UNL     1      45.224  77.206  44.953  0.00  0.00    -0.243 OA
ENDBRANCH  24  29
ENDBRANCH  19  20
ENDBRANCH   2  19
TORSDOF 7
