REMARK  Name = Deserpidine
REMARK  9 active torsions:
REMARK  status: ('A' for Active; 'I' for Inactive)
REMARK    1  A    between atoms: O_2  and  C_3
REMARK    2  A    between atoms: C_4  and  O_28
REMARK    3  A    between atoms: C_16  and  C_17
REMARK    4  A    between atoms: C_17  and  O_19
REMARK    5  A    between atoms: O_28  and  C_29
REMARK    6  A    between atoms: C_29  and  C_31
REMARK    7  A    between atoms: C_33  and  O_41
REMARK    8  A    between atoms: C_34  and  O_39
REMARK    9  A    between atoms: C_35  and  O_37
REMARK                            x       y       z     vdW  Elec       q    Type
REMARK                         _______ _______ _______ _____ _____    ______ ____
ROOT
ATOM      1  C   UNL     1      45.016  77.735  39.648  0.00  0.00    +0.166 C 
ATOM      2  C   UNL     1      44.024  78.305  38.725  0.00  0.00    +0.197 C 
ATOM      3  C   UNL     1      44.441  79.724  38.399  0.00  0.00    +0.048 C 
ATOM      4  C   UNL     1      44.840  80.545  39.575  0.00  0.00    +0.020 C 
ATOM      5  C   UNL     1      45.407  81.831  39.080  0.00  0.00    +0.072 C 
ATOM      6  N   UNL     1      46.538  82.320  39.811  0.00  0.00    -0.269 NA
ATOM      7  C   UNL     1      47.792  82.082  39.184  0.00  0.00    +0.077 C 
ATOM      8  C   UNL     1      48.905  81.725  40.133  0.00  0.00    +0.045 C 
ATOM      9  C   UNL     1      48.847  82.561  41.362  0.00  0.00    -0.004 A 
ATOM     10  C   UNL     1      47.596  82.775  41.900  0.00  0.00    +0.069 A 
ATOM     11  C   UNL     1      46.450  82.153  41.212  0.00  0.00    +0.098 C 
ATOM     12  C   UNL     1      46.234  80.711  41.621  0.00  0.00    +0.023 C 
ATOM     13  C   UNL     1      45.846  79.852  40.477  0.00  0.00    +0.016 C 
ATOM     14  C   UNL     1      45.178  78.564  40.910  0.00  0.00    +0.130 C 
ATOM     15  N   UNL     1      47.790  83.545  42.980  0.00  0.00    -0.249 NA
ATOM     16  C   UNL     1      49.086  83.837  43.166  0.00  0.00    +0.081 A 
ATOM     17  C   UNL     1      49.774  84.587  44.127  0.00  0.00    +0.019 A 
ATOM     18  C   UNL     1      51.146  84.700  44.040  0.00  0.00    +0.002 A 
ATOM     19  C   UNL     1      51.824  84.075  43.012  0.00  0.00    +0.000 A 
ATOM     20  C   UNL     1      51.130  83.328  42.056  0.00  0.00    +0.001 A 
ATOM     21  C   UNL     1      49.769  83.216  42.142  0.00  0.00    +0.015 A 
ENDROOT
BRANCH   1  23
ATOM     22  C   UNL     1      43.896  76.123  40.829  0.00  0.00    +0.174 C 
ATOM     23  O   UNL     1      44.885  76.389  39.915  0.00  0.00    -0.349 OA
ENDBRANCH   1  23
BRANCH  14  24
ATOM     24  C   UNL     1      45.897  77.823  41.949  0.00  0.00    +0.319 C 
ATOM     25  O   UNL     1      45.574  77.658  43.135  0.00  0.00    -0.250 OA
BRANCH  24  26
ATOM     26  O   UNL     1      47.108  77.222  41.549  0.00  0.00    -0.444 OA
ATOM     27  C   UNL     1      47.136  75.905  41.041  0.00  0.00    +0.256 C 
ENDBRANCH  24  26
ENDBRANCH  14  24
BRANCH   2  28
ATOM     28  O   UNL     1      42.683  78.336  39.099  0.00  0.00    -0.447 OA
BRANCH  28  29
ATOM     29  C   UNL     1      41.655  78.812  38.312  0.00  0.00    +0.341 C 
ATOM     30  O   UNL     1      41.746  80.013  38.017  0.00  0.00    -0.245 OA
BRANCH  29  31
ATOM     31  C   UNL     1      40.529  78.031  37.834  0.00  0.00    +0.082 A 
ATOM     32  C   UNL     1      40.681  76.695  37.540  0.00  0.00    +0.047 A 
ATOM     33  C   UNL     1      39.667  75.895  37.085  0.00  0.00    +0.176 A 
ATOM     34  C   UNL     1      38.400  76.444  36.901  0.00  0.00    +0.206 A 
ATOM     35  C   UNL     1      38.232  77.809  37.199  0.00  0.00    +0.176 A 
ATOM     36  C   UNL     1      39.274  78.582  37.654  0.00  0.00    +0.047 A 
BRANCH  35  37
ATOM     37  O   UNL     1      36.977  78.339  37.013  0.00  0.00    -0.468 OA
ATOM     38  C   UNL     1      36.674  79.664  37.393  0.00  0.00    +0.253 C 
ENDBRANCH  35  37
BRANCH  34  39
ATOM     39  O   UNL     1      37.423  75.722  36.475  0.00  0.00    -0.465 OA
ATOM     40  C   UNL     1      36.471  74.957  36.056  0.00  0.00    +0.253 C 
ENDBRANCH  34  39
BRANCH  33  41
ATOM     41  O   UNL     1      39.871  74.538  36.798  0.00  0.00    -0.468 OA
ATOM     42  C   UNL     1      41.146  73.947  37.053  0.00  0.00    +0.253 C 
ENDBRANCH  33  41
ENDBRANCH  29  31
ENDBRANCH  28  29
ENDBRANCH   2  28
TORSDOF 9
