REMARK  Name = Deslanoside
REMARK  10 active torsions:
REMARK  status: ('A' for Active; 'I' for Inactive)
REMARK    1  A    between atoms: C_3  and  O_37
REMARK    2  A    between atoms: C_6  and  O_8
REMARK    3  A    between atoms: O_8  and  C_9
REMARK    4  A    between atoms: C_25  and  C_26
REMARK    5  A    between atoms: O_37  and  C_38
REMARK    6  A    between atoms: C_41  and  O_45
REMARK    7  A    between atoms: O_45  and  C_46
REMARK    8  A    between atoms: C_49  and  O_53
REMARK    9  A    between atoms: O_53  and  C_54
REMARK   10  A    between atoms: C_58  and  C_60
REMARK                            x       y       z     vdW  Elec       q    Type
REMARK                         _______ _______ _______ _____ _____    ______ ____
ROOT
ATOM      1  C   UNL     1      41.099  76.212  35.737  0.00  0.00    +0.035 C 
ATOM      2  C   UNL     1      40.509  76.475  37.104  0.00  0.00    +0.147 C 
ATOM      3  C   UNL     1      39.645  75.291  37.581  0.00  0.00    +0.175 C 
ATOM      4  C   UNL     1      39.528  75.355  39.099  0.00  0.00    +0.186 C 
ATOM      5  C   UNL     1      39.827  76.793  39.543  0.00  0.00    +0.097 C 
ATOM      6  C   UNL     1      41.222  77.174  39.171  0.00  0.00    +0.238 C 
ATOM      7  O   UNL     1      41.587  76.501  38.009  0.00  0.00    -0.330 OA
ATOM      8  O   UNL     1      40.363  74.433  39.713  0.00  0.00    -0.220 OA
ENDROOT
BRANCH   6   9
ATOM      9  O   UNL     1      42.124  77.063  40.194  0.00  0.00    -0.333 OA
BRANCH   9  10
ATOM     10  C   UNL     1      43.424  77.441  39.875  0.00  0.00    +0.118 C 
ATOM     11  C   UNL     1      44.312  77.019  41.006  0.00  0.00    +0.030 C 
ATOM     12  C   UNL     1      45.133  78.165  41.552  0.00  0.00    +0.002 C 
ATOM     13  C   UNL     1      45.768  78.975  40.442  0.00  0.00    +0.000 C 
ATOM     14  C   UNL     1      44.776  79.541  39.485  0.00  0.00    +0.002 C 
ATOM     15  C   UNL     1      43.407  78.941  39.686  0.00  0.00    +0.030 C 
ATOM     16  C   UNL     1      44.676  81.041  39.557  0.00  0.00    +0.000 C 
ATOM     17  C   UNL     1      45.970  81.758  39.399  0.00  0.00    +0.002 C 
ATOM     18  C   UNL     1      47.124  81.055  40.057  0.00  0.00    +0.028 C 
ATOM     19  C   UNL     1      46.719  79.960  41.004  0.00  0.00    +0.005 C 
ATOM     20  C   UNL     1      46.304  80.626  42.291  0.00  0.00    +0.033 C 
ATOM     21  C   UNL     1      47.626  81.107  42.931  0.00  0.00    +0.154 C 
ATOM     22  C   UNL     1      48.087  82.269  42.090  0.00  0.00    +0.057 C 
ATOM     23  C   UNL     1      48.170  81.957  40.622  0.00  0.00    +0.129 C 
ATOM     24  C   UNL     1      49.543  81.316  40.385  0.00  0.00    +0.031 C 
ATOM     25  C   UNL     1      50.261  81.360  41.719  0.00  0.00    +0.007 C 
ATOM     26  C   UNL     1      49.551  82.475  42.415  0.00  0.00    +0.027 C 
ATOM     27  O   UNL     1      48.152  83.158  39.915  0.00  0.00    -0.226 OA
ATOM     28  C   UNL     1      47.357  83.543  42.399  0.00  0.00    +0.005 C 
ATOM     29  O   UNL     1      47.327  81.555  44.202  0.00  0.00    -0.223 OA
ATOM     30  C   UNL     1      46.616  77.950  39.661  0.00  0.00    +0.000 C 
BRANCH  26  31
ATOM     31  C   UNL     1      49.872  82.614  43.843  0.00  0.00    +0.005 C 
ATOM     32  C   UNL     1      50.315  83.766  44.377  0.00  0.00    +0.077 C 
ATOM     33  C   UNL     1      50.546  83.602  45.795  0.00  0.00    +0.341 C 
ATOM     34  O   UNL     1      50.965  84.521  46.558  0.00  0.00    -0.245 OA
ATOM     35  O   UNL     1      50.223  82.296  46.102  0.00  0.00    -0.441 OA
ATOM     36  C   UNL     1      49.752  81.648  44.948  0.00  0.00    +0.231 C 
ENDBRANCH  26  31
ENDBRANCH   9  10
ENDBRANCH   6   9
BRANCH   3  37
ATOM     37  O   UNL     1      38.386  75.302  37.045  0.00  0.00    -0.328 OA
BRANCH  37  38
ATOM     38  C   UNL     1      37.910  74.012  36.757  0.00  0.00    +0.238 C 
ATOM     39  C   UNL     1      36.434  73.906  36.695  0.00  0.00    +0.097 C 
ATOM     40  C   UNL     1      36.055  72.707  35.819  0.00  0.00    +0.186 C 
ATOM     41  C   UNL     1      36.509  72.972  34.393  0.00  0.00    +0.175 C 
ATOM     42  C   UNL     1      37.694  73.939  34.434  0.00  0.00    +0.147 C 
ATOM     43  O   UNL     1      38.481  73.663  35.552  0.00  0.00    -0.330 OA
ATOM     44  C   UNL     1      38.483  73.941  33.155  0.00  0.00    +0.035 C 
ATOM     45  O   UNL     1      34.668  72.610  35.882  0.00  0.00    -0.220 OA
BRANCH  41  46
ATOM     46  O   UNL     1      35.464  73.405  33.627  0.00  0.00    -0.328 OA
BRANCH  46  47
ATOM     47  C   UNL     1      35.564  73.082  32.274  0.00  0.00    +0.238 C 
ATOM     48  C   UNL     1      35.193  74.257  31.375  0.00  0.00    +0.097 C 
ATOM     49  C   UNL     1      35.211  73.767  29.947  0.00  0.00    +0.186 C 
ATOM     50  C   UNL     1      35.864  72.434  29.747  0.00  0.00    +0.175 C 
ATOM     51  C   UNL     1      36.843  71.983  30.768  0.00  0.00    +0.147 C 
ATOM     52  O   UNL     1      36.842  72.720  31.914  0.00  0.00    -0.330 OA
ATOM     53  C   UNL     1      38.275  71.993  30.242  0.00  0.00    +0.035 C 
ATOM     54  O   UNL     1      33.865  73.594  29.520  0.00  0.00    -0.220 OA
BRANCH  50  55
ATOM     55  O   UNL     1      34.938  71.410  29.473  0.00  0.00    -0.326 OA
BRANCH  55  56
ATOM     56  C   UNL     1      35.181  70.854  28.246  0.00  0.00    +0.270 C 
ATOM     57  C   UNL     1      34.244  69.793  27.799  0.00  0.00    +0.241 C 
ATOM     58  C   UNL     1      35.006  68.681  27.114  0.00  0.00    +0.220 C 
ATOM     59  C   UNL     1      36.144  69.205  26.249  0.00  0.00    +0.214 C 
ATOM     60  C   UNL     1      36.950  70.241  27.013  0.00  0.00    +0.183 C 
ATOM     61  O   UNL     1      36.480  70.260  28.334  0.00  0.00    -0.326 OA
ATOM     62  O   UNL     1      35.658  69.739  25.054  0.00  0.00    -0.218 OA
ATOM     63  O   UNL     1      34.175  67.953  26.260  0.00  0.00    -0.217 OA
ATOM     64  O   UNL     1      33.526  69.197  28.838  0.00  0.00    -0.215 OA
BRANCH  60  65
ATOM     65  C   UNL     1      38.420  69.961  27.040  0.00  0.00    +0.214 C 
ATOM     66  O   UNL     1      38.575  68.635  27.474  0.00  0.00    -0.218 OA
ENDBRANCH  60  65
ENDBRANCH  55  56
ENDBRANCH  50  55
ENDBRANCH  46  47
ENDBRANCH  41  46
ENDBRANCH  37  38
ENDBRANCH   3  37
TORSDOF 10
