REMARK  Name = Desloratadine
REMARK  0 active torsions:
REMARK  status: ('A' for Active; 'I' for Inactive)
REMARK                            x       y       z     vdW  Elec       q    Type
REMARK                         _______ _______ _______ _____ _____    ______ ____
ROOT
ATOM      1  C   UNL     1      48.089  79.575  43.965  0.00  0.00    +0.033 C 
ATOM      2  C   UNL     1      47.789  80.990  44.342  0.00  0.00    +0.031 C 
ATOM      3  C   UNL     1      48.422  81.928  43.343  0.00  0.00    -0.021 A 
ATOM      4  C   UNL     1      48.131  81.937  42.002  0.00  0.00    -0.003 A 
ATOM      5  C   UNL     1      48.765  82.770  41.093  0.00  0.00    +0.001 A 
ATOM      6  C   UNL     1      49.717  83.607  41.620  0.00  0.00    +0.011 A 
ATOM      7  C   UNL     1      50.033  83.627  42.964  0.00  0.00    +0.057 A 
ATOM      8  C   UNL     1      49.371  82.769  43.839  0.00  0.00    +0.007 A 
ATOM      9 CL   UNL     1      51.256  84.713  43.600  0.00  0.00    -0.082 Cl
ATOM     10  C   UNL     1      47.132  81.121  41.274  0.00  0.00    +0.009 C 
ATOM     11  C   UNL     1      46.344  81.703  40.406  0.00  0.00    -0.040 C 
ATOM     12  C   UNL     1      46.797  82.829  39.545  0.00  0.00    +0.041 C 
ATOM     13  C   UNL     1      45.608  83.250  38.668  0.00  0.00    +0.093 C 
ATOM     14  N   UNL     1      45.228  82.178  37.809  0.00  0.00    -0.217 NA
ATOM     15  C   UNL     1      44.961  80.962  38.510  0.00  0.00    +0.093 C 
ATOM     16  C   UNL     1      44.993  81.203  40.045  0.00  0.00    +0.041 C 
ATOM     17  C   UNL     1      46.936  79.694  41.656  0.00  0.00    +0.077 A 
ATOM     18  C   UNL     1      47.332  79.051  42.825  0.00  0.00    -0.004 A 
ATOM     19  C   UNL     1      47.005  77.707  42.977  0.00  0.00    -0.001 A 
ATOM     20  C   UNL     1      46.317  77.074  41.989  0.00  0.00    +0.020 A 
ATOM     21  C   UNL     1      45.942  77.764  40.832  0.00  0.00    +0.099 A 
ATOM     22  N   UNL     1      46.273  79.049  40.724  0.00  0.00    -0.244 NA
ENDROOT
TORSDOF 0
