REMARK  Name = Desmopressin
REMARK  19 active torsions:
REMARK  status: ('A' for Active; 'I' for Inactive)
REMARK    1  A    between atoms: C_3  and  C_57
REMARK    2  A    between atoms: C_6  and  C_8
REMARK    3  A    between atoms: C_17  and  C_49
REMARK    4  A    between atoms: C_21  and  C_42
REMARK    5  A    between atoms: C_25  and  C_37
REMARK    6  A    between atoms: C_29  and  C_33
REMARK    7  A    between atoms: C_33  and  C_34
REMARK    8  A    between atoms: C_37  and  C_38
REMARK    9  A    between atoms: C_38  and  C_39
REMARK   10  A    between atoms: C_42  and  C_43
REMARK   11  A    between atoms: C_49  and  C_50
REMARK   12  A    between atoms: N_59  and  C_60
REMARK   13  A    between atoms: C_60  and  C_61
REMARK   14  A    between atoms: C_60  and  C_68
REMARK   15  A    between atoms: C_61  and  C_62
REMARK   16  A    between atoms: C_62  and  C_63
REMARK   17  A    between atoms: C_63  and  N_64
REMARK   18  A    between atoms: N_70  and  C_71
REMARK   19  A    between atoms: C_71  and  C_72
REMARK                            x       y       z     vdW  Elec       q    Type
REMARK                         _______ _______ _______ _____ _____    ______ ____
ROOT
ATOM      1  C   UNL     1      47.685  75.689  44.057  0.00  0.00    +0.183 C 
ATOM      2  C   UNL     1      46.176  75.746  44.002  0.00  0.00    +0.100 C 
ATOM      3  S   UNL     1      45.526  74.318  43.125  0.00  0.00    -0.080 S 
ATOM      4  S   UNL     1      43.827  74.796  41.971  0.00  0.00    -0.082 S 
ATOM      5  C   UNL     1      43.383  76.534  41.979  0.00  0.00    +0.078 C 
ATOM      6  C   UNL     1      44.063  77.335  40.881  0.00  0.00    +0.099 C 
ATOM      7  C   UNL     1      43.190  78.468  40.514  0.00  0.00    +0.243 C 
ATOM      8  O   UNL     1      42.374  78.891  41.378  0.00  0.00    -0.273 OA
ATOM      9  N   UNL     1      43.187  79.127  39.261  0.00  0.00    -0.197 NA
ATOM     10  C   UNL     1      44.019  78.671  38.163  0.00  0.00    +0.177 C 
ATOM     11  C   UNL     1      44.778  79.777  37.542  0.00  0.00    +0.262 C 
ATOM     12  O   UNL     1      45.586  79.417  36.611  0.00  0.00    -0.271 OA
ATOM     13  N   UNL     1      44.728  81.144  37.839  0.00  0.00    -0.196 NA
ATOM     14  C   UNL     1      45.218  81.843  39.020  0.00  0.00    +0.177 C 
ATOM     15  C   UNL     1      45.851  80.966  40.001  0.00  0.00    +0.262 C 
ATOM     16  O   UNL     1      46.251  79.837  39.494  0.00  0.00    -0.271 OA
ATOM     17  N   UNL     1      46.095  81.135  41.373  0.00  0.00    -0.196 NA
ATOM     18  C   UNL     1      47.066  81.951  42.055  0.00  0.00    +0.173 C 
ATOM     19  C   UNL     1      48.342  81.259  42.380  0.00  0.00    +0.262 C 
ATOM     20  O   UNL     1      49.147  82.044  43.024  0.00  0.00    -0.271 OA
ATOM     21  N   UNL     1      48.835  80.004  42.151  0.00  0.00    -0.196 NA
ATOM     22  C   UNL     1      48.082  78.715  42.094  0.00  0.00    +0.182 C 
ATOM     23  C   UNL     1      48.030  78.207  43.498  0.00  0.00    +0.262 C 
ATOM     24  O   UNL     1      47.663  79.206  44.284  0.00  0.00    -0.271 OA
ATOM     25  N   UNL     1      48.264  77.019  44.115  0.00  0.00    -0.195 NA
ENDROOT
BRANCH   1  31
ATOM     26  C   UNL     1      45.767  75.474  48.156  0.00  0.00    +0.024 C 
ATOM     27  C   UNL     1      46.844  76.452  48.501  0.00  0.00    +0.031 C 
ATOM     28  C   UNL     1      47.929  76.225  47.489  0.00  0.00    +0.154 C 
ATOM     29  N   UNL     1      47.470  75.216  46.593  0.00  0.00    -0.272 N 
ATOM     30  C   UNL     1      46.420  74.455  47.269  0.00  0.00    +0.094 C 
ATOM     31  C   UNL     1      48.003  74.891  45.282  0.00  0.00    +0.247 C 
ATOM     32  O   UNL     1      48.761  73.879  45.245  0.00  0.00    -0.273 OA
BRANCH  28  33
ATOM     33  C   UNL     1      49.178  75.906  48.223  0.00  0.00    +0.260 C 
ATOM     34  O   UNL     1      49.976  75.025  47.715  0.00  0.00    -0.272 OA
ATOM     35  N   UNL     1      49.610  76.457  49.437  0.00  0.00    -0.196 NA
BRANCH  35  36
ATOM     36  C   UNL     1      51.017  76.248  49.907  0.00  0.00    +0.173 C 
BRANCH  36  37
ATOM     37  C   UNL     1      50.937  75.182  50.927  0.00  0.00    +0.262 C 
ATOM     38  O   UNL     1      52.033  74.627  51.303  0.00  0.00    -0.271 OA
ATOM     39  N   UNL     1      49.729  74.759  51.495  0.00  0.00    -0.194 NA
BRANCH  39  40
ATOM     40  C   UNL     1      49.752  73.671  52.468  0.00  0.00    +0.203 C 
BRANCH  40  41
ATOM     41  C   UNL     1      50.058  74.212  53.815  0.00  0.00    +0.283 C 
ATOM     42  O   UNL     1      50.281  75.440  53.994  0.00  0.00    -0.270 OA
ATOM     43  N   UNL     1      50.111  73.365  54.952  0.00  0.00    -0.086 NA
ENDBRANCH  40  41
ENDBRANCH  39  40
ENDBRANCH  36  37
BRANCH  36  44
ATOM     44  C   UNL     1      51.566  77.537  50.382  0.00  0.00    +0.033 C 
BRANCH  44  45
ATOM     45  C   UNL     1      52.984  77.607  50.777  0.00  0.00    +0.029 C 
BRANCH  45  46
ATOM     46  C   UNL     1      53.387  78.974  51.309  0.00  0.00    +0.129 C 
BRANCH  46  47
ATOM     47  N   UNL     1      54.766  79.010  51.675  0.00  0.00    -0.234 NA
ATOM     48  C   UNL     1      55.629  79.620  50.954  0.00  0.00    +0.284 C 
ATOM     49  N   UNL     1      56.960  79.141  50.700  0.00  0.00    -0.104 NA
ATOM     50  N   UNL     1      55.290  80.873  50.330  0.00  0.00    -0.104 NA
ENDBRANCH  46  47
ENDBRANCH  45  46
ENDBRANCH  44  45
ENDBRANCH  36  44
ENDBRANCH  35  36
ENDBRANCH  28  33
ENDBRANCH   1  31
BRANCH  10  51
ATOM     51  C   UNL     1      43.088  77.974  37.151  0.00  0.00    +0.057 C 
BRANCH  51  52
ATOM     52  C   UNL     1      41.702  77.929  37.606  0.00  0.00    -0.020 A 
ATOM     53  C   UNL     1      41.304  78.513  38.780  0.00  0.00    -0.001 A 
ATOM     54  C   UNL     1      39.961  78.427  39.170  0.00  0.00    +0.042 A 
ATOM     55  C   UNL     1      39.042  77.771  38.397  0.00  0.00    +0.196 A 
ATOM     56  C   UNL     1      39.459  77.186  37.214  0.00  0.00    +0.042 A 
ATOM     57  C   UNL     1      40.766  77.276  36.849  0.00  0.00    -0.001 A 
ATOM     58  O   UNL     1      37.711  77.683  38.775  0.00  0.00    -0.287 OA
ENDBRANCH  51  52
ENDBRANCH  10  51
BRANCH  22  59
ATOM     59  C   UNL     1      48.829  77.900  41.110  0.00  0.00    +0.120 C 
BRANCH  59  60
ATOM     60  C   UNL     1      50.222  78.219  40.834  0.00  0.00    +0.263 C 
ATOM     61  O   UNL     1      50.918  77.579  39.972  0.00  0.00    -0.272 OA
ATOM     62  N   UNL     1      50.877  79.269  41.517  0.00  0.00    -0.088 NA
ENDBRANCH  59  60
ENDBRANCH  22  59
BRANCH  14  63
ATOM     63  C   UNL     1      46.165  82.952  38.546  0.00  0.00    +0.057 C 
BRANCH  63  64
ATOM     64  C   UNL     1      47.354  83.075  39.443  0.00  0.00    -0.020 A 
ATOM     65  C   UNL     1      47.708  82.048  40.304  0.00  0.00    -0.004 A 
ATOM     66  C   UNL     1      48.823  82.213  41.097  0.00  0.00    -0.000 A 
ATOM     67  C   UNL     1      49.596  83.342  41.072  0.00  0.00    -0.000 A 
ATOM     68  C   UNL     1      49.251  84.374  40.211  0.00  0.00    -0.000 A 
ATOM     69  C   UNL     1      48.129  84.219  39.409  0.00  0.00    -0.004 A 
ENDBRANCH  63  64
ENDBRANCH  14  63
BRANCH  18  70
ATOM     70  C   UNL     1      46.516  82.451  43.372  0.00  0.00    +0.041 C 
BRANCH  70  71
ATOM     71  C   UNL     1      47.327  83.369  44.179  0.00  0.00    +0.091 C 
BRANCH  71  72
ATOM     72  C   UNL     1      48.518  83.879  43.511  0.00  0.00    +0.261 C 
ATOM     73  O   UNL     1      48.535  84.750  42.576  0.00  0.00    -0.272 OA
ATOM     74  N   UNL     1      49.828  83.416  43.876  0.00  0.00    -0.088 NA
ENDBRANCH  71  72
ENDBRANCH  70  71
ENDBRANCH  18  70
TORSDOF 19
