REMARK  Name = Desoximetasone
REMARK  2 active torsions:
REMARK  status: ('A' for Active; 'I' for Inactive)
REMARK    1  A    between atoms: C_19  and  C_20
REMARK    2  A    between atoms: C_20  and  C_22
REMARK                            x       y       z     vdW  Elec       q    Type
REMARK                         _______ _______ _______ _____ _____    ______ ____
ROOT
ATOM      1  C   UNL     1      49.506  85.192  42.695  0.00  0.00    +0.000 C 
ATOM      2  C   UNL     1      48.779  83.889  42.472  0.00  0.00    +0.007 C 
ATOM      3  C   UNL     1      48.152  83.790  41.094  0.00  0.00    +0.001 C 
ATOM      4  C   UNL     1      48.031  82.310  40.811  0.00  0.00    +0.003 C 
ATOM      5  C   UNL     1      46.648  81.827  41.066  0.00  0.00    +0.033 C 
ATOM      6  C   UNL     1      45.586  82.510  40.254  0.00  0.00    +0.007 C 
ATOM      7  C   UNL     1      45.333  81.884  38.904  0.00  0.00    +0.023 C 
ATOM      8  C   UNL     1      44.934  80.467  39.240  0.00  0.00    -0.035 C 
ATOM      9  C   UNL     1      43.735  80.029  39.011  0.00  0.00    +0.034 C 
ATOM     10  C   UNL     1      43.429  78.655  39.365  0.00  0.00    +0.195 C 
ATOM     11  O   UNL     1      42.249  78.219  39.140  0.00  0.00    -0.287 OA
ATOM     12  C   UNL     1      44.451  77.829  39.953  0.00  0.00    +0.038 C 
ATOM     13  C   UNL     1      45.644  78.297  40.169  0.00  0.00    -0.017 C 
ATOM     14  C   UNL     1      46.042  79.675  39.838  0.00  0.00    +0.064 C 
ATOM     15  C   UNL     1      46.430  80.361  41.100  0.00  0.00    +0.168 C 
ATOM     16  C   UNL     1      47.463  79.675  41.916  0.00  0.00    +0.182 C 
ATOM     17  C   UNL     1      48.366  80.633  42.670  0.00  0.00    +0.036 C 
ATOM     18  C   UNL     1      49.005  81.605  41.749  0.00  0.00    +0.009 C 
ATOM     19  C   UNL     1      49.711  82.683  42.550  0.00  0.00    +0.060 C 
ATOM     20  C   UNL     1      50.086  80.895  40.925  0.00  0.00    +0.001 C 
ATOM     21  O   UNL     1      48.293  78.823  41.214  0.00  0.00    -0.220 OA
ATOM     22  F   UNL     1      45.234  80.217  41.866  0.00  0.00    -0.237 F 
ATOM     23  C   UNL     1      47.075  79.565  38.766  0.00  0.00    +0.011 C 
ENDROOT
BRANCH  19  24
ATOM     24  C   UNL     1      49.958  82.320  43.961  0.00  0.00    +0.183 C 
ATOM     25  O   UNL     1      49.335  82.924  44.821  0.00  0.00    -0.293 OA
BRANCH  24  26
ATOM     26  C   UNL     1      50.901  81.286  44.437  0.00  0.00    +0.246 C 
ATOM     27  O   UNL     1      51.434  81.510  45.684  0.00  0.00    -0.212 OA
ENDBRANCH  24  26
ENDBRANCH  19  24
TORSDOF 2
