REMARK  Name = Desoxycorticosterone_Pivalate
REMARK  5 active torsions:
REMARK  status: ('A' for Active; 'I' for Inactive)
REMARK    1  A    between atoms: C_10  and  C_11
REMARK    2  A    between atoms: C_11  and  C_13
REMARK    3  A    between atoms: C_13  and  O_14
REMARK    4  A    between atoms: O_14  and  C_15
REMARK    5  A    between atoms: C_15  and  C_17
REMARK                            x       y       z     vdW  Elec       q    Type
REMARK                         _______ _______ _______ _____ _____    ______ ____
ROOT
ATOM      1  C   UNL     1      45.502  79.292  38.473  0.00  0.00    +0.000 C 
ATOM      2  C   UNL     1      44.938  79.766  39.769  0.00  0.00    +0.007 C 
ATOM      3  C   UNL     1      43.673  80.540  39.549  0.00  0.00    +0.000 C 
ATOM      4  C   UNL     1      42.730  79.611  38.807  0.00  0.00    +0.000 C 
ATOM      5  C   UNL     1      42.415  78.442  39.697  0.00  0.00    +0.003 C 
ATOM      6  C   UNL     1      43.622  77.663  40.134  0.00  0.00    +0.001 C 
ATOM      7  C   UNL     1      44.623  78.592  40.705  0.00  0.00    +0.000 C 
ATOM      8  C   UNL     1      45.990  78.042  40.912  0.00  0.00    +0.000 C 
ATOM      9  C   UNL     1      46.819  79.326  41.068  0.00  0.00    +0.007 C 
ATOM     10  C   UNL     1      45.960  80.459  40.603  0.00  0.00    +0.061 C 
ATOM     11  C   UNL     1      43.180  76.731  41.267  0.00  0.00    +0.004 C 
ATOM     12  C   UNL     1      41.730  76.387  41.191  0.00  0.00    +0.022 C 
ATOM     13  C   UNL     1      41.233  76.347  39.780  0.00  0.00    -0.042 C 
ATOM     14  C   UNL     1      40.703  75.266  39.250  0.00  0.00    +0.029 C 
ATOM     15  C   UNL     1      40.248  75.320  37.872  0.00  0.00    +0.173 C 
ATOM     16  O   UNL     1      39.586  74.377  37.404  0.00  0.00    -0.291 OA
ATOM     17  C   UNL     1      40.554  76.472  37.014  0.00  0.00    +0.069 C 
ATOM     18  C   UNL     1      41.721  77.267  37.587  0.00  0.00    +0.012 C 
ATOM     19  C   UNL     1      41.373  77.605  39.002  0.00  0.00    +0.016 C 
ATOM     20  C   UNL     1      40.083  78.398  39.006  0.00  0.00    +0.004 C 
ENDROOT
BRANCH  10  21
ATOM     21  C   UNL     1      46.694  81.519  39.891  0.00  0.00    +0.194 C 
ATOM     22  O   UNL     1      46.169  81.969  38.884  0.00  0.00    -0.292 OA
BRANCH  21  23
ATOM     23  C   UNL     1      47.991  82.075  40.287  0.00  0.00    +0.272 C 
BRANCH  23  24
ATOM     24  O   UNL     1      47.861  82.995  41.333  0.00  0.00    -0.440 OA
BRANCH  24  25
ATOM     25  C   UNL     1      48.972  83.368  42.031  0.00  0.00    +0.316 C 
ATOM     26  O   UNL     1      50.071  82.823  41.796  0.00  0.00    -0.250 OA
BRANCH  25  27
ATOM     27  C   UNL     1      48.897  84.416  43.069  0.00  0.00    +0.090 C 
ATOM     28  C   UNL     1      47.526  85.058  43.123  0.00  0.00    +0.011 C 
ATOM     29  C   UNL     1      49.939  85.459  42.809  0.00  0.00    +0.011 C 
ATOM     30  C   UNL     1      49.142  83.715  44.413  0.00  0.00    +0.011 C 
ENDBRANCH  25  27
ENDBRANCH  24  25
ENDBRANCH  23  24
ENDBRANCH  21  23
ENDBRANCH  10  21
TORSDOF 5
