REMARK  Name = Desoxycorticosterone_Acetate
REMARK  4 active torsions:
REMARK  status: ('A' for Active; 'I' for Inactive)
REMARK    1  A    between atoms: C_2  and  O_4
REMARK    2  A    between atoms: O_4  and  C_5
REMARK    3  A    between atoms: C_5  and  C_6
REMARK    4  A    between atoms: C_6  and  C_8
REMARK                            x       y       z     vdW  Elec       q    Type
REMARK                         _______ _______ _______ _____ _____    ______ ____
ROOT
ATOM      1  C   UNL     1      49.772  81.644  41.131  0.00  0.00    +0.061 C 
ATOM      2  C   UNL     1      49.477  83.002  40.531  0.00  0.00    +0.007 C 
ATOM      3  C   UNL     1      48.061  82.876  39.990  0.00  0.00    +0.000 C 
ATOM      4  C   UNL     1      47.383  81.983  41.042  0.00  0.00    +0.000 C 
ATOM      5  C   UNL     1      48.425  81.144  41.667  0.00  0.00    +0.007 C 
ATOM      6  C   UNL     1      48.319  79.668  41.432  0.00  0.00    +0.000 C 
ATOM      7  C   UNL     1      46.851  79.293  41.715  0.00  0.00    +0.000 C 
ATOM      8  C   UNL     1      46.088  79.867  40.588  0.00  0.00    +0.003 C 
ATOM      9  C   UNL     1      46.181  81.363  40.483  0.00  0.00    +0.001 C 
ATOM     10  C   UNL     1      45.901  81.711  39.028  0.00  0.00    +0.004 C 
ATOM     11  C   UNL     1      44.407  81.402  38.809  0.00  0.00    +0.022 C 
ATOM     12  C   UNL     1      44.189  79.985  39.174  0.00  0.00    -0.042 C 
ATOM     13  C   UNL     1      43.628  79.181  38.308  0.00  0.00    +0.029 C 
ATOM     14  C   UNL     1      43.367  77.775  38.558  0.00  0.00    +0.173 C 
ATOM     15  O   UNL     1      42.568  77.096  37.895  0.00  0.00    -0.291 OA
ATOM     16  C   UNL     1      44.114  77.161  39.668  0.00  0.00    +0.069 C 
ATOM     17  C   UNL     1      44.279  78.106  40.829  0.00  0.00    +0.012 C 
ATOM     18  C   UNL     1      44.620  79.504  40.510  0.00  0.00    +0.016 C 
ATOM     19  C   UNL     1      43.828  80.371  41.514  0.00  0.00    +0.004 C 
ATOM     20  C   UNL     1      48.407  81.335  43.195  0.00  0.00    +0.000 C 
ENDROOT
BRANCH   1  21
ATOM     21  C   UNL     1      50.799  81.799  42.176  0.00  0.00    +0.194 C 
ATOM     22  O   UNL     1      51.983  81.641  41.835  0.00  0.00    -0.292 OA
BRANCH  21  23
ATOM     23  C   UNL     1      50.511  82.127  43.600  0.00  0.00    +0.272 C 
BRANCH  23  24
ATOM     24  O   UNL     1      50.429  83.519  43.740  0.00  0.00    -0.440 OA
BRANCH  24  26
ATOM     25  C   UNL     1      51.214  85.761  44.406  0.00  0.00    +0.121 C 
ATOM     26  C   UNL     1      51.298  84.290  44.484  0.00  0.00    +0.318 C 
ATOM     27  O   UNL     1      52.142  83.726  45.211  0.00  0.00    -0.250 OA
ENDBRANCH  24  26
ENDBRANCH  23  24
ENDBRANCH  21  23
ENDBRANCH   1  21
TORSDOF 4
