REMARK  Name = Desonide
REMARK  2 active torsions:
REMARK  status: ('A' for Active; 'I' for Inactive)
REMARK    1  A    between atoms: C_21  and  C_23
REMARK    2  A    between atoms: C_23  and  C_25
REMARK                            x       y       z     vdW  Elec       q    Type
REMARK                         _______ _______ _______ _____ _____    ______ ____
ROOT
ATOM      1  C   UNL     1      44.816  77.136  39.468  0.00  0.00    +0.061 C 
ATOM      2  C   UNL     1      45.688  77.952  40.415  0.00  0.00    +0.188 C 
ATOM      3  O   UNL     1      44.886  78.504  41.380  0.00  0.00    -0.334 OA
ATOM      4  C   UNL     1      44.984  79.871  41.232  0.00  0.00    +0.149 C 
ATOM      5  C   UNL     1      45.984  80.448  42.264  0.00  0.00    +0.033 C 
ATOM      6  C   UNL     1      46.299  81.731  41.542  0.00  0.00    +0.005 C 
ATOM      7  C   UNL     1      47.411  82.534  42.117  0.00  0.00    +0.004 C 
ATOM      8  C   UNL     1      46.970  83.416  43.228  0.00  0.00    +0.004 C 
ATOM      9  C   UNL     1      48.023  84.497  43.350  0.00  0.00    +0.022 C 
ATOM     10  C   UNL     1      49.378  83.961  43.059  0.00  0.00    -0.038 C 
ATOM     11  C   UNL     1      50.303  84.835  42.688  0.00  0.00    +0.034 C 
ATOM     12  C   UNL     1      51.638  84.368  42.400  0.00  0.00    +0.195 C 
ATOM     13  O   UNL     1      52.551  85.160  42.043  0.00  0.00    -0.287 OA
ATOM     14  C   UNL     1      51.917  82.955  42.528  0.00  0.00    +0.038 C 
ATOM     15  C   UNL     1      50.992  82.107  42.891  0.00  0.00    -0.020 C 
ATOM     16  C   UNL     1      49.605  82.513  43.190  0.00  0.00    +0.036 C 
ATOM     17  C   UNL     1      48.603  81.695  42.404  0.00  0.00    +0.038 C 
ATOM     18  C   UNL     1      49.117  81.298  41.023  0.00  0.00    +0.153 C 
ATOM     19  C   UNL     1      48.092  80.636  40.195  0.00  0.00    +0.036 C 
ATOM     20  C   UNL     1      46.712  81.242  40.185  0.00  0.00    +0.034 C 
ATOM     21  C   UNL     1      45.657  80.150  39.938  0.00  0.00    +0.173 C 
ATOM     22  O   UNL     1      46.366  78.938  39.743  0.00  0.00    -0.330 OA
ATOM     23  C   UNL     1      46.671  82.327  39.140  0.00  0.00    +0.003 C 
ATOM     24  O   UNL     1      50.246  80.521  41.048  0.00  0.00    -0.223 OA
ATOM     25  C   UNL     1      49.400  82.217  44.688  0.00  0.00    +0.009 C 
ATOM     26  C   UNL     1      46.656  77.004  41.128  0.00  0.00    +0.061 C 
ENDROOT
BRANCH  21  27
ATOM     27  C   UNL     1      44.819  80.368  38.774  0.00  0.00    +0.210 C 
ATOM     28  O   UNL     1      45.263  81.164  37.913  0.00  0.00    -0.291 OA
BRANCH  27  29
ATOM     29  C   UNL     1      43.506  79.787  38.434  0.00  0.00    +0.248 C 
ATOM     30  O   UNL     1      42.931  80.234  37.272  0.00  0.00    -0.212 OA
ENDBRANCH  27  29
ENDBRANCH  21  27
TORSDOF 2
