REMARK  Name = Desogestrel
REMARK  2 active torsions:
REMARK  status: ('A' for Active; 'I' for Inactive)
REMARK    1  A    between atoms: C_2  and  C_3
REMARK    2  A    between atoms: C_12  and  C_13
REMARK                            x       y       z     vdW  Elec       q    Type
REMARK                         _______ _______ _______ _____ _____    ______ ____
ROOT
ATOM      1  C   UNL     1      49.355  82.452  42.217  0.00  0.00    +0.040 C 
ATOM      2  C   UNL     1      49.166  81.055  42.690  0.00  0.00    +0.025 C 
ATOM      3  C   UNL     1      47.823  80.455  42.276  0.00  0.00    -0.044 C 
ATOM      4  C   UNL     1      47.119  80.022  43.253  0.00  0.00    -0.009 C 
ATOM      5  C   UNL     1      47.515  80.423  40.828  0.00  0.00    +0.022 C 
ATOM      6  C   UNL     1      48.091  81.673  40.170  0.00  0.00    +0.004 C 
ATOM      7  C   UNL     1      48.353  82.784  41.185  0.00  0.00    +0.004 C 
ATOM      8  C   UNL     1      47.139  83.233  41.884  0.00  0.00    +0.004 C 
ATOM      9  C   UNL     1      47.569  83.571  43.284  0.00  0.00    +0.043 C 
ATOM     10  C   UNL     1      49.058  83.437  43.322  0.00  0.00    +0.180 C 
ATOM     11  O   UNL     1      49.642  84.648  42.980  0.00  0.00    -0.212 OA
ATOM     12  C   UNL     1      47.317  82.232  39.044  0.00  0.00    +0.005 C 
ATOM     13  C   UNL     1      45.830  82.196  39.222  0.00  0.00    +0.022 C 
ATOM     14  C   UNL     1      45.353  80.864  39.589  0.00  0.00    -0.048 C 
ATOM     15  C   UNL     1      44.093  80.571  39.277  0.00  0.00    -0.035 C 
ATOM     16  C   UNL     1      43.436  79.272  39.569  0.00  0.00    +0.025 C 
ATOM     17  C   UNL     1      44.483  78.302  40.005  0.00  0.00    +0.005 C 
ATOM     18  C   UNL     1      45.402  78.996  41.069  0.00  0.00    +0.005 C 
ATOM     19  C   UNL     1      46.285  79.908  40.266  0.00  0.00    +0.022 C 
ENDROOT
BRANCH   1  21
ATOM     20  C   UNL     1      51.448  81.566  41.157  0.00  0.00    +0.000 C 
ATOM     21  C   UNL     1      50.778  82.747  41.779  0.00  0.00    +0.004 C 
ENDBRANCH   1  21
BRANCH  10  22
ATOM     22  C   UNL     1      49.522  82.931  44.620  0.00  0.00    -0.049 C 
ATOM     23  C   UNL     1      49.910  82.531  45.654  0.00  0.00    -0.012 C 
ENDBRANCH  10  22
TORSDOF 2
