REMARK  Name = Desvenalfaxine_succinate
REMARK  7 active torsions:
REMARK  status: ('A' for Active; 'I' for Inactive)
REMARK    1  A    between atoms: N_2  and  C_4
REMARK    2  A    between atoms: C_4  and  C_5
REMARK    3  A    between atoms: C_5  and  C_6
REMARK    4  A    between atoms: C_5  and  C_13
REMARK    5  A    between atoms: C_20  and  C_21
REMARK    6  A    between atoms: C_20  and  C_25
REMARK    7  A    between atoms: C_21  and  C_22
REMARK                            x       y       z     vdW  Elec       q    Type
REMARK                         _______ _______ _______ _____ _____    ______ ____
ROOT
ATOM      1  C   UNL     1      48.657  81.014  41.242  0.00  0.00    +0.066 C 
ENDROOT
BRANCH   1   2
ATOM      2  C   UNL     1      47.291  80.885  40.668  0.00  0.00    -0.019 A 
ATOM      3  C   UNL     1      46.995  81.511  39.495  0.00  0.00    -0.001 A 
ATOM      4  C   UNL     1      45.712  81.396  38.938  0.00  0.00    +0.042 A 
ATOM      5  C   UNL     1      44.776  80.633  39.615  0.00  0.00    +0.196 A 
ATOM      6  C   UNL     1      45.075  80.003  40.795  0.00  0.00    +0.042 A 
ATOM      7  C   UNL     1      46.355  80.142  41.314  0.00  0.00    -0.001 A 
ATOM      8  O   UNL     1      43.485  80.492  39.094  0.00  0.00    -0.287 OA
ENDBRANCH   1   2
BRANCH   1   9
ATOM      9  C   UNL     1      48.523  81.876  42.453  0.00  0.00    +0.132 C 
ATOM     10  C   UNL     1      49.773  82.141  43.230  0.00  0.00    +0.031 C 
ATOM     11  C   UNL     1      50.357  83.520  42.893  0.00  0.00    +0.003 C 
ATOM     12  C   UNL     1      49.439  84.625  43.404  0.00  0.00    +0.000 C 
ATOM     13  C   UNL     1      48.024  84.152  43.203  0.00  0.00    +0.003 C 
ATOM     14  C   UNL     1      48.019  83.255  41.985  0.00  0.00    +0.031 C 
ATOM     15  O   UNL     1      47.482  81.431  43.302  0.00  0.00    -0.225 OA
ENDBRANCH   1   9
BRANCH   1  16
ATOM     16  C   UNL     1      49.153  79.636  41.434  0.00  0.00    +0.079 C 
BRANCH  16  18
ATOM     17  C   UNL     1      50.615  77.979  42.091  0.00  0.00    +0.090 C 
ATOM     18  N   UNL     1      50.462  79.446  41.951  0.00  0.00    -0.270 NA
ATOM     19  C   UNL     1      51.480  79.786  40.931  0.00  0.00    +0.090 C 
ENDBRANCH  16  18
ENDBRANCH   1  16
TORSDOF 4
REMARK  Name = Desvenalfaxine_succinate
REMARK  7 active torsions:
REMARK  status: ('A' for Active; 'I' for Inactive)
REMARK    1  A    between atoms: N_2  and  C_4
REMARK    2  A    between atoms: C_4  and  C_5
REMARK    3  A    between atoms: C_5  and  C_6
REMARK    4  A    between atoms: C_5  and  C_13
REMARK    5  A    between atoms: C_20  and  C_21
REMARK    6  A    between atoms: C_20  and  C_25
REMARK    7  A    between atoms: C_21  and  C_22
REMARK                            x       y       z     vdW  Elec       q    Type
REMARK                         _______ _______ _______ _____ _____    ______ ____
ROOT
ATOM      1  C   UNL     1      48.926  81.307  42.367  0.00  0.00    +0.126 C 
ENDROOT
BRANCH   1   2
ATOM      2  C   UNL     1      49.086  82.689  42.841  0.00  0.00    +0.365 C 
ATOM      3  O   UNL     1      50.124  82.980  43.491  0.00  0.00    -0.246 OA
ATOM      4  O   UNL     1      48.183  83.719  42.634  0.00  0.00    -0.246 OA
ENDBRANCH   1   2
BRANCH   1   5
ATOM      5  C   UNL     1      48.272  81.232  41.008  0.00  0.00    +0.126 C 
BRANCH   5   6
ATOM      6  C   UNL     1      48.163  79.781  40.646  0.00  0.00    +0.365 C 
ATOM      7  O   UNL     1      48.603  78.897  41.444  0.00  0.00    -0.246 OA
ATOM      8  O   UNL     1      47.584  79.370  39.440  0.00  0.00    -0.246 OA
ENDBRANCH   5   6
ENDBRANCH   1   5
TORSDOF 3
REMARK  Name = Desvenalfaxine_succinate
REMARK  7 active torsions:
REMARK  status: ('A' for Active; 'I' for Inactive)
REMARK    1  A    between atoms: N_2  and  C_4
REMARK    2  A    between atoms: C_4  and  C_5
REMARK    3  A    between atoms: C_5  and  C_6
REMARK    4  A    between atoms: C_5  and  C_13
REMARK    5  A    between atoms: C_20  and  C_21
REMARK    6  A    between atoms: C_20  and  C_25
REMARK    7  A    between atoms: C_21  and  C_22
REMARK                            x       y       z     vdW  Elec       q    Type
REMARK                         _______ _______ _______ _____ _____    ______ ____
ROOT
ATOM      1  O   HOH     1      48.090  81.403  41.592  0.00  0.00    +0.000 OA
ENDROOT
TORSDOF 0
