REMARK  Name = Desvenlafaxine
REMARK  4 active torsions:
REMARK  status: ('A' for Active; 'I' for Inactive)
REMARK    1  A    between atoms: N_2  and  C_4
REMARK    2  A    between atoms: C_4  and  C_5
REMARK    3  A    between atoms: C_5  and  C_6
REMARK    4  A    between atoms: C_5  and  C_13
REMARK                            x       y       z     vdW  Elec       q    Type
REMARK                         _______ _______ _______ _____ _____    ______ ____
ROOT
ATOM      1  C   UNL     1      49.073  81.452  41.467  0.00  0.00    +0.066 C 
ENDROOT
BRANCH   1   2
ATOM      2  C   UNL     1      47.820  81.484  40.683  0.00  0.00    -0.019 A 
ATOM      3  C   UNL     1      46.801  80.538  40.846  0.00  0.00    -0.001 A 
ATOM      4  C   UNL     1      45.651  80.509  40.112  0.00  0.00    +0.042 A 
ATOM      5  C   UNL     1      45.469  81.470  39.142  0.00  0.00    +0.196 A 
ATOM      6  C   UNL     1      46.448  82.419  38.953  0.00  0.00    +0.042 A 
ATOM      7  C   UNL     1      47.594  82.429  39.701  0.00  0.00    -0.001 A 
ATOM      8  O   UNL     1      44.309  81.483  38.364  0.00  0.00    -0.287 OA
ENDBRANCH   1   2
BRANCH   1   9
ATOM      9  C   UNL     1      49.462  82.797  42.028  0.00  0.00    +0.132 C 
ATOM     10  C   UNL     1      48.305  83.274  42.880  0.00  0.00    +0.031 C 
ATOM     11  C   UNL     1      48.602  84.691  43.382  0.00  0.00    +0.003 C 
ATOM     12  C   UNL     1      49.731  84.567  44.371  0.00  0.00    +0.000 C 
ATOM     13  C   UNL     1      50.559  83.338  44.218  0.00  0.00    +0.003 C 
ATOM     14  C   UNL     1      50.717  82.880  42.769  0.00  0.00    +0.031 C 
ATOM     15  O   UNL     1      49.504  83.721  40.951  0.00  0.00    -0.225 OA
ENDBRANCH   1   9
BRANCH   1  16
ATOM     16  C   UNL     1      49.341  80.300  42.329  0.00  0.00    +0.079 C 
BRANCH  16  18
ATOM     17  C   UNL     1      50.857  78.570  42.488  0.00  0.00    +0.090 C 
ATOM     18  N   UNL     1      49.626  79.021  41.773  0.00  0.00    -0.270 NA
ATOM     19  C   UNL     1      50.077  79.112  40.384  0.00  0.00    +0.090 C 
ENDBRANCH  16  18
ENDBRANCH   1  16
TORSDOF 4
