REMARK  Name = Deucravacitinib
REMARK  6 active torsions:
REMARK  status: ('A' for Active; 'I' for Inactive)
REMARK    1  A    between atoms: C_3  and  C_5
REMARK    2  A    between atoms: C_10  and  N_11
REMARK    3  A    between atoms: N_11  and  C_12
REMARK    4  A    between atoms: C_16  and  C_20
REMARK    5  A    between atoms: C_17  and  O_18
REMARK    6  A    between atoms: C_27  and  C_29
REMARK                            x       y       z     vdW  Elec       q    Type
REMARK                         _______ _______ _______ _____ _____    ______ ____
ROOT
ATOM      1  C   UNL     1      46.279  81.359  39.557  0.00  0.00    +0.173 A 
ATOM      2  N   UNL     1      45.675  82.006  38.508  0.00  0.00    -0.141 NA
ATOM      3  N   UNL     1      44.639  81.539  37.867  0.00  0.00    -0.131 NA
ATOM      4  C   UNL     1      44.060  80.345  38.192  0.00  0.00    +0.177 A 
ATOM      5  C   UNL     1      44.610  79.652  39.218  0.00  0.00    +0.056 A 
ATOM      6  C   UNL     1      45.735  80.155  39.922  0.00  0.00    +0.097 A 
ATOM      7  N   UNL     1      42.939  79.907  37.448  0.00  0.00    -0.159 NA
ATOM      8  C   UNL     1      41.981  78.949  37.826  0.00  0.00    +0.246 C 
ATOM      9  O   UNL     1      42.164  78.216  38.810  0.00  0.00    -0.273 OA
ENDROOT
BRANCH   1  12
ATOM     10  C   UNL     1      48.995  83.938  40.345  0.00  0.00    +0.139 C 
ATOM     11  N   UNL     1      47.869  83.276  39.722  0.00  0.00    -0.198 NA
ATOM     12  C   UNL     1      47.398  81.984  40.204  0.00  0.00    +0.286 C 
ATOM     13  O   UNL     1      48.025  81.524  41.159  0.00  0.00    -0.267 OA
ENDBRANCH   1  12
BRANCH   8  14
ATOM     14  C   UNL     1      40.695  78.776  37.050  0.00  0.00    +0.079 C 
ATOM     15  C   UNL     1      39.584  78.021  37.719  0.00  0.00    +0.010 C 
ATOM     16  C   UNL     1      40.414  77.396  36.601  0.00  0.00    +0.010 C 
ENDBRANCH   8  14
BRANCH   6  17
ATOM     17  N   UNL     1      46.242  79.479  41.045  0.00  0.00    -0.208 NA
BRANCH  17  18
ATOM     18  C   UNL     1      45.834  78.204  41.518  0.00  0.00    +0.104 A 
ATOM     19  C   UNL     1      45.473  77.151  40.722  0.00  0.00    +0.020 A 
ATOM     20  C   UNL     1      45.169  75.921  41.284  0.00  0.00    +0.002 A 
ATOM     21  C   UNL     1      45.206  75.686  42.631  0.00  0.00    +0.006 A 
ATOM     22  C   UNL     1      45.562  76.722  43.449  0.00  0.00    +0.073 A 
ATOM     23  C   UNL     1      45.867  77.944  42.909  0.00  0.00    +0.157 A 
BRANCH  22  24
ATOM     24  C   UNL     1      45.624  76.548  44.916  0.00  0.00    +0.186 A 
ATOM     25  N   UNL     1      46.207  77.368  45.804  0.00  0.00    -0.148 NA
ATOM     26  N   UNL     1      46.080  76.918  47.035  0.00  0.00    -0.228 N 
ATOM     27  C   UNL     1      45.390  75.769  46.920  0.00  0.00    +0.197 A 
ATOM     28  N   UNL     1      45.105  75.533  45.628  0.00  0.00    -0.203 NA
ATOM     29  C   UNL     1      46.559  77.493  48.278  0.00  0.00    +0.156 C 
ENDBRANCH  22  24
BRANCH  23  30
ATOM     30  O   UNL     1      46.221  78.964  43.770  0.00  0.00    -0.470 OA
ATOM     31  C   UNL     1      45.553  80.211  43.809  0.00  0.00    +0.253 C 
ENDBRANCH  23  30
ENDBRANCH  17  18
ENDBRANCH   6  17
TORSDOF 6
