REMARK  Name = Deutetrabenazine
REMARK  4 active torsions:
REMARK  status: ('A' for Active; 'I' for Inactive)
REMARK    1  A    between atoms: C_2  and  C_4
REMARK    2  A    between atoms: C_4  and  C_5
REMARK    3  A    between atoms: C_12  and  O_22
REMARK    4  A    between atoms: C_13  and  O_20
REMARK                            x       y       z     vdW  Elec       q    Type
REMARK                         _______ _______ _______ _____ _____    ______ ____
ROOT
ATOM      1  C   UNL     1      48.242  82.318  42.276  0.00  0.00    +0.074 C 
ATOM      2  C   UNL     1      47.280  82.818  41.279  0.00  0.00    +0.080 C 
ATOM      3  N   UNL     1      46.544  81.853  40.536  0.00  0.00    -0.269 NA
ATOM      4  C   UNL     1      45.976  82.239  39.320  0.00  0.00    +0.077 C 
ATOM      5  C   UNL     1      45.801  81.093  38.333  0.00  0.00    +0.044 C 
ATOM      6  C   UNL     1      45.047  80.053  39.078  0.00  0.00    -0.020 A 
ATOM      7  C   UNL     1      44.129  79.224  38.421  0.00  0.00    +0.036 A 
ATOM      8  C   UNL     1      43.407  78.249  39.077  0.00  0.00    +0.172 A 
ATOM      9  C   UNL     1      43.574  78.060  40.423  0.00  0.00    +0.172 A 
ATOM     10  C   UNL     1      44.470  78.867  41.071  0.00  0.00    +0.037 A 
ATOM     11  C   UNL     1      45.217  79.868  40.424  0.00  0.00    -0.008 A 
ATOM     12  C   UNL     1      46.156  80.688  41.186  0.00  0.00    +0.087 C 
ATOM     13  C   UNL     1      47.361  79.921  41.690  0.00  0.00    +0.085 C 
ATOM     14  C   UNL     1      48.114  80.852  42.555  0.00  0.00    +0.153 C 
ATOM     15  O   UNL     1      48.663  80.428  43.547  0.00  0.00    -0.296 OA
ENDROOT
BRANCH   9  16
ATOM     16  O   UNL     1      42.872  77.103  41.086  0.00  0.00    -0.468 OA
ATOM     17  C   UNL     1      43.288  76.394  42.219  0.00  0.00    +0.253 C 
ENDBRANCH   9  16
BRANCH   8  18
ATOM     18  O   UNL     1      42.497  77.426  38.426  0.00  0.00    -0.468 OA
ATOM     19  C   UNL     1      41.635  78.032  37.482  0.00  0.00    +0.253 C 
ENDBRANCH   8  18
BRANCH   1  20
ATOM     20  C   UNL     1      49.640  82.714  41.989  0.00  0.00    +0.009 C 
BRANCH  20  22
ATOM     21  C   UNL     1      49.305  84.798  43.209  0.00  0.00    +0.000 C 
ATOM     22  C   UNL     1      50.328  83.675  42.865  0.00  0.00    +0.000 C 
ATOM     23  C   UNL     1      51.510  84.411  42.294  0.00  0.00    +0.000 C 
ENDBRANCH  20  22
ENDBRANCH   1  20
TORSDOF 4
