REMARK  Name = Dexamethasone
REMARK  2 active torsions:
REMARK  status: ('A' for Active; 'I' for Inactive)
REMARK    1  A    between atoms: C_19  and  C_20
REMARK    2  A    between atoms: C_20  and  C_22
REMARK                            x       y       z     vdW  Elec       q    Type
REMARK                         _______ _______ _______ _____ _____    ______ ____
ROOT
ATOM      1  C   UNL     1      50.827  81.617  43.879  0.00  0.00    +0.003 C 
ATOM      2  C   UNL     1      49.987  81.341  42.684  0.00  0.00    +0.035 C 
ATOM      3  C   UNL     1      48.709  80.544  43.016  0.00  0.00    +0.003 C 
ATOM      4  C   UNL     1      47.986  80.740  41.758  0.00  0.00    +0.006 C 
ATOM      5  C   UNL     1      46.553  80.322  41.666  0.00  0.00    +0.034 C 
ATOM      6  C   UNL     1      46.334  78.922  42.113  0.00  0.00    +0.007 C 
ATOM      7  C   UNL     1      44.925  78.477  41.935  0.00  0.00    +0.023 C 
ATOM      8  C   UNL     1      44.454  78.855  40.543  0.00  0.00    -0.035 C 
ATOM      9  C   UNL     1      43.877  77.944  39.839  0.00  0.00    +0.034 C 
ATOM     10  C   UNL     1      43.403  78.234  38.468  0.00  0.00    +0.195 C 
ATOM     11  O   UNL     1      42.840  77.373  37.768  0.00  0.00    -0.287 OA
ATOM     12  C   UNL     1      43.636  79.580  37.997  0.00  0.00    +0.038 C 
ATOM     13  C   UNL     1      44.222  80.487  38.741  0.00  0.00    -0.017 C 
ATOM     14  C   UNL     1      44.679  80.225  40.096  0.00  0.00    +0.064 C 
ATOM     15  C   UNL     1      46.165  80.520  40.233  0.00  0.00    +0.168 C 
ATOM     16  C   UNL     1      46.568  81.778  39.576  0.00  0.00    +0.182 C 
ATOM     17  C   UNL     1      47.813  82.437  40.097  0.00  0.00    +0.038 C 
ATOM     18  C   UNL     1      48.009  82.232  41.572  0.00  0.00    +0.035 C 
ATOM     19  C   UNL     1      49.339  82.618  42.126  0.00  0.00    +0.180 C 
ATOM     20  O   UNL     1      49.129  83.403  43.294  0.00  0.00    -0.218 OA
ATOM     21  C   UNL     1      46.947  82.983  42.306  0.00  0.00    +0.003 C 
ATOM     22  O   UNL     1      46.736  81.599  38.193  0.00  0.00    -0.220 OA
ATOM     23  F   UNL     1      46.794  79.474  39.532  0.00  0.00    -0.237 F 
ATOM     24  C   UNL     1      43.870  81.165  41.007  0.00  0.00    +0.011 C 
ENDROOT
BRANCH  19  25
ATOM     25  C   UNL     1      50.221  83.396  41.270  0.00  0.00    +0.211 C 
ATOM     26  O   UNL     1      50.549  84.525  41.562  0.00  0.00    -0.291 OA
BRANCH  25  27
ATOM     27  C   UNL     1      50.787  82.864  39.972  0.00  0.00    +0.248 C 
ATOM     28  O   UNL     1      51.838  83.638  39.503  0.00  0.00    -0.212 OA
ENDBRANCH  25  27
ENDBRANCH  19  25
TORSDOF 2
