REMARK  Name = Dexbrompheniramine
REMARK  5 active torsions:
REMARK  status: ('A' for Active; 'I' for Inactive)
REMARK    1  A    between atoms: N_2  and  C_4
REMARK    2  A    between atoms: C_4  and  C_5
REMARK    3  A    between atoms: C_5  and  C_6
REMARK    4  A    between atoms: C_6  and  C_7
REMARK    5  A    between atoms: C_6  and  C_14
REMARK                            x       y       z     vdW  Elec       q    Type
REMARK                         _______ _______ _______ _____ _____    ______ ____
ROOT
ATOM      1  C   UNL     1      44.050  78.684  40.641  0.00  0.00    +0.064 C 
ENDROOT
BRANCH   1   2
ATOM      2  C   UNL     1      45.282  79.476  40.590  0.00  0.00    -0.017 A 
ATOM      3  C   UNL     1      45.308  80.622  39.822  0.00  0.00    -0.003 A 
ATOM      4  C   UNL     1      46.418  81.436  39.712  0.00  0.00    +0.006 A 
ATOM      5  C   UNL     1      47.559  81.107  40.390  0.00  0.00    +0.035 A 
ATOM      6  C   UNL     1      47.561  79.968  41.165  0.00  0.00    +0.006 A 
ATOM      7  C   UNL     1      46.444  79.163  41.266  0.00  0.00    -0.003 A 
ATOM      8 BR   UNL     1      49.127  82.218  40.261  0.00  0.00    -0.049 Br
ENDBRANCH   1   2
BRANCH   1   9
ATOM      9  C   UNL     1      44.138  77.504  41.553  0.00  0.00    +0.063 A 
ATOM     10  C   UNL     1      43.805  77.556  42.889  0.00  0.00    +0.015 A 
ATOM     11  C   UNL     1      43.904  76.426  43.707  0.00  0.00    +0.003 A 
ATOM     12  C   UNL     1      44.339  75.221  43.203  0.00  0.00    +0.021 A 
ATOM     13  C   UNL     1      44.665  75.201  41.860  0.00  0.00    +0.098 A 
ATOM     14  N   UNL     1      44.565  76.296  41.085  0.00  0.00    -0.248 NA
ENDBRANCH   1   9
BRANCH   1  15
ATOM     15  C   UNL     1      43.553  78.197  39.319  0.00  0.00    +0.028 C 
BRANCH  15  16
ATOM     16  C   UNL     1      42.052  78.414  39.149  0.00  0.00    +0.073 C 
BRANCH  16  18
ATOM     17  C   UNL     1      41.521  76.135  38.608  0.00  0.00    +0.090 C 
ATOM     18  N   UNL     1      41.615  77.495  38.145  0.00  0.00    -0.270 NA
ATOM     19  C   UNL     1      40.486  77.931  37.386  0.00  0.00    +0.090 C 
ENDBRANCH  16  18
ENDBRANCH  15  16
ENDBRANCH   1  15
TORSDOF 5
