REMARK  Name = Dexlansoprazole
REMARK  6 active torsions:
REMARK  status: ('A' for Active; 'I' for Inactive)
REMARK    1  A    between atoms: C_3  and  O_20
REMARK    2  A    between atoms: C_7  and  C_8
REMARK    3  A    between atoms: C_8  and  S_9
REMARK    4  A    between atoms: S_9  and  C_11
REMARK    5  A    between atoms: O_20  and  C_21
REMARK    6  A    between atoms: C_21  and  C_22
REMARK                            x       y       z     vdW  Elec       q    Type
REMARK                         _______ _______ _______ _____ _____    ______ ____
ROOT
ATOM      1  C   UNL     1      47.640  80.513  42.753  0.00  0.00    +0.035 C 
ATOM      2  C   UNL     1      47.778  81.515  41.676  0.00  0.00    +0.027 A 
ATOM      3  C   UNL     1      48.808  82.444  41.790  0.00  0.00    +0.138 A 
ATOM      4  C   UNL     1      48.998  83.407  40.825  0.00  0.00    +0.057 A 
ATOM      5  C   UNL     1      48.127  83.403  39.753  0.00  0.00    +0.102 A 
ATOM      6  N   UNL     1      47.135  82.488  39.667  0.00  0.00    -0.247 NA
ATOM      7  C   UNL     1      46.941  81.545  40.602  0.00  0.00    +0.072 A 
ENDROOT
BRANCH   7   8
ATOM      8  C   UNL     1      45.837  80.578  40.426  0.00  0.00    +0.145 C 
BRANCH   8   9
ATOM      9  S   UNL     1      45.620  80.190  38.632  0.00  0.00    +0.107 S 
ATOM     10  O   UNL     1      44.988  81.500  38.105  0.00  0.00    -0.248 OA
BRANCH   9  11
ATOM     11  C   UNL     1      44.212  79.069  38.614  0.00  0.00    +0.221 A 
ATOM     12  N   UNL     1      44.161  77.966  39.378  0.00  0.00    -0.218 NA
ATOM     13  C   UNL     1      42.996  77.312  39.172  0.00  0.00    +0.101 A 
ATOM     14  C   UNL     1      42.523  76.145  39.736  0.00  0.00    +0.021 A 
ATOM     15  C   UNL     1      41.283  75.719  39.320  0.00  0.00    +0.002 A 
ATOM     16  C   UNL     1      40.568  76.435  38.387  0.00  0.00    +0.002 A 
ATOM     17  C   UNL     1      41.073  77.609  37.836  0.00  0.00    +0.021 A 
ATOM     18  C   UNL     1      42.320  78.060  38.238  0.00  0.00    +0.101 A 
ATOM     19  N   UNL     1      43.087  79.121  37.920  0.00  0.00    -0.218 NA
ENDBRANCH   9  11
ENDBRANCH   8   9
ENDBRANCH   7   8
BRANCH   3  20
ATOM     20  O   UNL     1      49.674  82.435  42.879  0.00  0.00    -0.467 OA
BRANCH  20  21
ATOM     21  C   UNL     1      50.991  82.953  42.786  0.00  0.00    +0.308 C 
BRANCH  21  22
ATOM     22  C   UNL     1      51.074  84.237  43.608  0.00  0.00    +0.438 C 
ATOM     23  F   UNL     1      51.894  84.010  44.682  0.00  0.00    -0.166 F 
ATOM     24  F   UNL     1      49.833  84.648  44.044  0.00  0.00    -0.166 F 
ATOM     25  F   UNL     1      51.599  85.219  42.778  0.00  0.00    -0.166 F 
ENDBRANCH  21  22
ENDBRANCH  20  21
ENDBRANCH   3  20
TORSDOF 6
