REMARK  Name = Dexmedetomidine
REMARK  2 active torsions:
REMARK  status: ('A' for Active; 'I' for Inactive)
REMARK    1  A    between atoms: C_4  and  C_8
REMARK    2  A    between atoms: C_8  and  C_10
REMARK                            x       y       z     vdW  Elec       q    Type
REMARK                         _______ _______ _______ _____ _____    ______ ____
ROOT
ATOM      1  C   UNL     1      50.203  83.898  44.869  0.00  0.00    +0.031 C 
ATOM      2  C   UNL     1      49.130  83.835  43.814  0.00  0.00    -0.026 A 
ATOM      3  C   UNL     1      49.199  82.892  42.779  0.00  0.00    -0.029 A 
ATOM      4  C   UNL     1      48.226  82.825  41.812  0.00  0.00    -0.021 A 
ATOM      5  C   UNL     1      47.172  83.746  41.922  0.00  0.00    -0.004 A 
ATOM      6  C   UNL     1      47.083  84.677  42.927  0.00  0.00    -0.001 A 
ATOM      7  C   UNL     1      48.072  84.711  43.870  0.00  0.00    -0.005 A 
ATOM      8  C   UNL     1      50.352  82.004  42.822  0.00  0.00    +0.030 C 
ENDROOT
BRANCH   4   9
ATOM      9  C   UNL     1      48.267  81.856  40.702  0.00  0.00    +0.064 C 
ATOM     10  C   UNL     1      49.474  81.993  39.819  0.00  0.00    +0.011 C 
BRANCH   9  11
ATOM     11  C   UNL     1      46.984  81.768  39.928  0.00  0.00    +0.084 A 
ATOM     12  C   UNL     1      46.647  82.668  38.937  0.00  0.00    +0.116 A 
ATOM     13  N   UNL     1      45.443  82.293  38.488  0.00  0.00    -0.221 NA
ATOM     14  C   UNL     1      45.035  81.208  39.161  0.00  0.00    +0.199 A 
ATOM     15  N   UNL     1      45.988  80.900  40.038  0.00  0.00    -0.226 NA
ENDBRANCH   9  11
ENDBRANCH   4   9
TORSDOF 2
