REMARK  Name = Dexrazoxane
REMARK  3 active torsions:
REMARK  status: ('A' for Active; 'I' for Inactive)
REMARK    1  A    between atoms: C_2  and  C_3
REMARK    2  A    between atoms: C_2  and  N_12
REMARK    3  A    between atoms: C_3  and  N_4
REMARK                            x       y       z     vdW  Elec       q    Type
REMARK                         _______ _______ _______ _____ _____    ______ ____
ROOT
ATOM      1  C   UNL     1      47.306  82.653  43.372  0.00  0.00    +0.019 C 
ATOM      2  C   UNL     1      47.816  82.607  41.958  0.00  0.00    +0.074 C 
ENDROOT
BRANCH   2   3
ATOM      3  N   UNL     1      49.187  83.131  41.895  0.00  0.00    -0.257 NA
ATOM      4  C   UNL     1      49.413  84.222  42.767  0.00  0.00    +0.161 C 
ATOM      5  C   UNL     1      50.574  84.152  43.645  0.00  0.00    +0.264 C 
ATOM      6  O   UNL     1      50.576  84.748  44.743  0.00  0.00    -0.271 OA
ATOM      7  N   UNL     1      51.712  83.403  43.251  0.00  0.00    -0.142 NA
ATOM      8  C   UNL     1      51.478  82.371  42.310  0.00  0.00    +0.264 C 
ATOM      9  O   UNL     1      52.444  81.738  41.844  0.00  0.00    -0.271 OA
ATOM     10  C   UNL     1      50.120  82.062  41.899  0.00  0.00    +0.161 C 
ENDBRANCH   2   3
BRANCH   2  11
ATOM     11  C   UNL     1      47.740  81.257  41.344  0.00  0.00    +0.089 C 
BRANCH  11  12
ATOM     12  N   UNL     1      46.606  80.894  40.629  0.00  0.00    -0.256 NA
ATOM     13  C   UNL     1      45.930  79.695  40.864  0.00  0.00    +0.161 C 
ATOM     14  C   UNL     1      45.124  79.340  39.640  0.00  0.00    +0.264 C 
ATOM     15  O   UNL     1      44.343  78.347  39.627  0.00  0.00    -0.271 OA
ATOM     16  N   UNL     1      45.242  80.138  38.468  0.00  0.00    -0.142 NA
ATOM     17  C   UNL     1      45.529  81.518  38.638  0.00  0.00    +0.264 C 
ATOM     18  O   UNL     1      45.512  82.323  37.681  0.00  0.00    -0.271 OA
ATOM     19  C   UNL     1      45.850  81.947  40.021  0.00  0.00    +0.161 C 
ENDBRANCH  11  12
ENDBRANCH   2  11
TORSDOF 3
