REMARK  Name = Dextropropoxyphene
REMARK  9 active torsions:
REMARK  status: ('A' for Active; 'I' for Inactive)
REMARK    1  A    between atoms: C_2  and  C_3
REMARK    2  A    between atoms: C_3  and  O_5
REMARK    3  A    between atoms: O_5  and  C_6
REMARK    4  A    between atoms: C_6  and  C_7
REMARK    5  A    between atoms: C_6  and  C_14
REMARK    6  A    between atoms: C_6  and  C_20
REMARK    7  A    between atoms: C_7  and  C_8
REMARK    8  A    between atoms: C_20  and  C_22
REMARK    9  A    between atoms: C_22  and  N_23
REMARK                            x       y       z     vdW  Elec       q    Type
REMARK                         _______ _______ _______ _____ _____    ______ ____
ROOT
ATOM      1  C   UNL     1      47.797  80.961  41.603  0.00  0.00    +0.160 C 
ENDROOT
BRANCH   1   2
ATOM      2  C   UNL     1      47.595  81.588  40.230  0.00  0.00    +0.014 A 
ATOM      3  C   UNL     1      46.830  82.781  40.266  0.00  0.00    -0.001 A 
ATOM      4  C   UNL     1      46.511  83.490  39.134  0.00  0.00    -0.000 A 
ATOM      5  C   UNL     1      46.947  83.031  37.916  0.00  0.00    -0.000 A 
ATOM      6  C   UNL     1      47.688  81.876  37.876  0.00  0.00    -0.000 A 
ATOM      7  C   UNL     1      48.003  81.164  39.047  0.00  0.00    -0.001 A 
ENDBRANCH   1   2
BRANCH   1   8
ATOM      8  C   UNL     1      46.998  79.668  41.444  0.00  0.00    +0.057 C 
ATOM      9  C   UNL     1      47.278  78.800  42.623  0.00  0.00    +0.005 C 
BRANCH   8  10
ATOM     10  C   UNL     1      45.550  79.790  41.203  0.00  0.00    +0.076 C 
BRANCH  10  11
ATOM     11  N   UNL     1      44.989  78.482  40.768  0.00  0.00    -0.270 NA
ATOM     12  C   UNL     1      44.125  78.921  39.608  0.00  0.00    +0.090 C 
ATOM     13  C   UNL     1      43.959  78.011  41.702  0.00  0.00    +0.090 C 
ENDBRANCH  10  11
ENDBRANCH   8  10
ENDBRANCH   1   8
BRANCH   1  14
ATOM     14  O   UNL     1      47.248  81.926  42.417  0.00  0.00    -0.451 OA
BRANCH  14  15
ATOM     15  C   UNL     1      47.695  83.101  42.879  0.00  0.00    +0.317 C 
ATOM     16  O   UNL     1      48.663  83.605  42.289  0.00  0.00    -0.250 OA
BRANCH  15  18
ATOM     17  C   UNL     1      46.821  85.266  43.714  0.00  0.00    +0.012 C 
ATOM     18  C   UNL     1      47.104  83.831  44.049  0.00  0.00    +0.110 C 
ENDBRANCH  15  18
ENDBRANCH  14  15
ENDBRANCH   1  14
BRANCH   1  19
ATOM     19  C   UNL     1      49.166  80.616  41.970  0.00  0.00    +0.071 C 
BRANCH  19  20
ATOM     20  C   UNL     1      50.269  81.551  42.005  0.00  0.00    -0.018 A 
ATOM     21  C   UNL     1      50.950  81.867  43.179  0.00  0.00    -0.004 A 
ATOM     22  C   UNL     1      52.067  82.711  43.183  0.00  0.00    -0.000 A 
ATOM     23  C   UNL     1      52.525  83.255  42.011  0.00  0.00    -0.000 A 
ATOM     24  C   UNL     1      51.892  82.973  40.839  0.00  0.00    -0.000 A 
ATOM     25  C   UNL     1      50.790  82.133  40.876  0.00  0.00    -0.004 A 
ENDBRANCH  19  20
ENDBRANCH   1  19
TORSDOF 9
