REMARK  Name = Dextromethorphan_Polistirex
REMARK  1 active torsions:
REMARK  status: ('A' for Active; 'I' for Inactive)
REMARK    1  A    between atoms: C_16  and  O_19
REMARK                            x       y       z     vdW  Elec       q    Type
REMARK                         _______ _______ _______ _____ _____    ______ ____
ROOT
ATOM      1  C   UNL     1      51.548  80.198  42.868  0.00  0.00    +0.090 C 
ATOM      2  N   UNL     1      50.908  81.456  43.041  0.00  0.00    -0.272 NA
ATOM      3  C   UNL     1      51.197  82.432  42.042  0.00  0.00    +0.072 C 
ATOM      4  C   UNL     1      50.122  82.603  40.999  0.00  0.00    +0.021 C 
ATOM      5  C   UNL     1      48.775  82.936  41.603  0.00  0.00    +0.021 C 
ATOM      6  C   UNL     1      48.451  84.365  41.320  0.00  0.00    +0.004 C 
ATOM      7  C   UNL     1      47.294  84.898  42.111  0.00  0.00    +0.000 C 
ATOM      8  C   UNL     1      47.287  84.446  43.546  0.00  0.00    +0.000 C 
ATOM      9  C   UNL     1      47.584  82.975  43.723  0.00  0.00    +0.002 C 
ATOM     10  C   UNL     1      48.913  82.716  43.099  0.00  0.00    +0.019 C 
ATOM     11  C   UNL     1      49.499  81.366  43.365  0.00  0.00    +0.062 C 
ATOM     12  C   UNL     1      48.820  80.232  42.678  0.00  0.00    +0.042 C 
ATOM     13  C   UNL     1      47.840  80.684  41.663  0.00  0.00    -0.025 A 
ATOM     14  C   UNL     1      47.791  81.954  41.133  0.00  0.00    -0.024 A 
ATOM     15  C   UNL     1      46.817  82.236  40.186  0.00  0.00    +0.032 A 
ATOM     16  C   UNL     1      45.906  81.290  39.766  0.00  0.00    +0.138 A 
ATOM     17  C   UNL     1      45.958  80.022  40.299  0.00  0.00    +0.037 A 
ATOM     18  C   UNL     1      46.916  79.719  41.240  0.00  0.00    -0.001 A 
ENDROOT
BRANCH  16  19
ATOM     19  O   UNL     1      44.941  81.588  38.821  0.00  0.00    -0.471 OA
ATOM     20  C   UNL     1      44.000  80.650  38.373  0.00  0.00    +0.252 C 
ENDBRANCH  16  19
TORSDOF 1
REMARK  Name = Dextromethorphan_Polistirex
REMARK  1 active torsions:
REMARK  status: ('A' for Active; 'I' for Inactive)
REMARK    1  A    between atoms: C_16  and  O_19
REMARK                            x       y       z     vdW  Elec       q    Type
REMARK                         _______ _______ _______ _____ _____    ______ ____
ROOT
ATOM      1 BR   UNL     1      47.662  81.696  41.208  0.00  0.00    +0.000 Br
ENDROOT
TORSDOF 0
