REMARK  Name = Dextran
REMARK  11 active torsions:
REMARK  status: ('A' for Active; 'I' for Inactive)
REMARK    1  A    between atoms: C_1  and  C_2
REMARK    2  A    between atoms: C_6  and  O_8
REMARK    3  A    between atoms: O_8  and  C_9
REMARK    4  A    between atoms: C_9  and  C_10
REMARK    5  A    between atoms: C_14  and  O_16
REMARK    6  A    between atoms: O_16  and  C_17
REMARK    7  A    between atoms: C_17  and  C_18
REMARK    8  A    between atoms: C_18  and  C_19
REMARK    9  A    between atoms: C_19  and  C_20
REMARK   10  A    between atoms: C_20  and  C_21
REMARK   11  A    between atoms: C_21  and  C_22
REMARK                            x       y       z     vdW  Elec       q    Type
REMARK                         _______ _______ _______ _____ _____    ______ ____
ROOT
ATOM      1  C   UNL     1      44.388  79.923  40.470  0.00  0.00    +0.180 C 
ATOM      2  C   UNL     1      44.410  80.438  39.092  0.00  0.00    +0.214 C 
ATOM      3  C   UNL     1      45.324  81.651  38.930  0.00  0.00    +0.220 C 
ATOM      4  C   UNL     1      46.311  81.714  40.086  0.00  0.00    +0.241 C 
ATOM      5  C   UNL     1      46.690  80.266  40.346  0.00  0.00    +0.270 C 
ATOM      6  O   UNL     1      45.659  79.648  40.981  0.00  0.00    -0.326 OA
ATOM      7  O   UNL     1      47.431  82.417  39.719  0.00  0.00    -0.215 OA
ATOM      8  O   UNL     1      46.072  81.567  37.763  0.00  0.00    -0.217 OA
ATOM      9  O   UNL     1      44.848  79.509  38.154  0.00  0.00    -0.218 OA
ENDROOT
BRANCH   1  10
ATOM     10  C   UNL     1      43.581  78.664  40.592  0.00  0.00    +0.177 C 
BRANCH  10  11
ATOM     11  O   UNL     1      43.715  77.658  39.765  0.00  0.00    -0.326 OA
BRANCH  11  16
ATOM     12  C   UNL     1      41.184  76.224  37.947  0.00  0.00    +0.183 C 
ATOM     13  C   UNL     1      40.879  75.041  38.830  0.00  0.00    +0.214 C 
ATOM     14  C   UNL     1      40.898  75.489  40.276  0.00  0.00    +0.220 C 
ATOM     15  C   UNL     1      42.292  75.946  40.625  0.00  0.00    +0.241 C 
ATOM     16  C   UNL     1      42.863  76.712  39.392  0.00  0.00    +0.270 C 
ATOM     17  O   UNL     1      41.725  77.236  38.711  0.00  0.00    -0.326 OA
ATOM     18  O   UNL     1      43.065  74.790  40.837  0.00  0.00    -0.215 OA
ATOM     19  O   UNL     1      40.057  76.589  40.455  0.00  0.00    -0.217 OA
ATOM     20  O   UNL     1      39.614  74.542  38.489  0.00  0.00    -0.218 OA
BRANCH  12  21
ATOM     21  C   UNL     1      39.956  76.678  37.184  0.00  0.00    +0.214 C 
ATOM     22  O   UNL     1      40.289  77.825  36.459  0.00  0.00    -0.218 OA
ENDBRANCH  12  21
ENDBRANCH  11  16
ENDBRANCH  10  11
ENDBRANCH   1  10
BRANCH   5  23
ATOM     23  O   UNL     1      47.887  80.165  41.004  0.00  0.00    -0.326 OA
BRANCH  23  24
ATOM     24  C   UNL     1      47.763  80.036  42.380  0.00  0.00    +0.180 C 
BRANCH  24  25
ATOM     25  C   UNL     1      49.038  80.354  43.108  0.00  0.00    +0.214 C 
ATOM     26  O   UNL     1      49.842  79.194  43.025  0.00  0.00    -0.218 OA
BRANCH  25  27
ATOM     27  C   UNL     1      49.769  81.527  42.468  0.00  0.00    +0.218 C 
ATOM     28  O   UNL     1      50.350  81.139  41.255  0.00  0.00    -0.217 OA
BRANCH  27  29
ATOM     29  C   UNL     1      50.815  82.087  43.409  0.00  0.00    +0.223 C 
ATOM     30  O   UNL     1      51.775  81.155  43.761  0.00  0.00    -0.217 OA
BRANCH  29  31
ATOM     31  C   UNL     1      51.514  83.232  42.669  0.00  0.00    +0.249 C 
ATOM     32  O   UNL     1      50.566  84.181  42.284  0.00  0.00    -0.212 OA
BRANCH  31  33
ATOM     33  C   UNL     1      52.475  83.828  43.624  0.00  0.00    +0.243 C 
ATOM     34  O   UNL     1      52.363  83.617  44.798  0.00  0.00    -0.285 OA
ENDBRANCH  31  33
ENDBRANCH  29  31
ENDBRANCH  27  29
ENDBRANCH  25  27
ENDBRANCH  24  25
ENDBRANCH  23  24
ENDBRANCH   5  23
TORSDOF 11
