REMARK  Name = Dextromethorphan
REMARK  1 active torsions:
REMARK  status: ('A' for Active; 'I' for Inactive)
REMARK    1  A    between atoms: C_16  and  O_19
REMARK                            x       y       z     vdW  Elec       q    Type
REMARK                         _______ _______ _______ _____ _____    ______ ____
ROOT
ATOM      1  C   UNL     1      42.983  80.322  38.277  0.00  0.00    +0.090 C 
ATOM      2  N   UNL     1      44.019  80.761  39.225  0.00  0.00    -0.272 NA
ATOM      3  C   UNL     1      43.521  80.496  40.536  0.00  0.00    +0.072 C 
ATOM      4  C   UNL     1      44.505  80.658  41.638  0.00  0.00    +0.021 C 
ATOM      5  C   UNL     1      45.922  80.275  41.228  0.00  0.00    +0.021 C 
ATOM      6  C   UNL     1      46.529  79.546  42.364  0.00  0.00    +0.004 C 
ATOM      7  C   UNL     1      47.692  78.653  42.036  0.00  0.00    +0.000 C 
ATOM      8  C   UNL     1      47.406  77.728  40.878  0.00  0.00    +0.000 C 
ATOM      9  C   UNL     1      47.076  78.654  39.699  0.00  0.00    +0.002 C 
ATOM     10  C   UNL     1      45.764  79.316  40.065  0.00  0.00    +0.019 C 
ATOM     11  C   UNL     1      45.221  80.067  38.886  0.00  0.00    +0.062 C 
ATOM     12  C   UNL     1      46.323  81.015  38.429  0.00  0.00    +0.042 C 
ATOM     13  C   UNL     1      46.785  81.888  39.510  0.00  0.00    -0.025 A 
ATOM     14  C   UNL     1      46.585  81.530  40.827  0.00  0.00    -0.024 A 
ATOM     15  C   UNL     1      47.030  82.393  41.796  0.00  0.00    +0.032 A 
ATOM     16  C   UNL     1      47.664  83.594  41.471  0.00  0.00    +0.138 A 
ATOM     17  C   UNL     1      47.849  83.921  40.151  0.00  0.00    +0.037 A 
ATOM     18  C   UNL     1      47.415  83.080  39.160  0.00  0.00    -0.001 A 
ENDROOT
BRANCH  16  19
ATOM     19  O   UNL     1      48.103  84.445  42.462  0.00  0.00    -0.471 OA
ATOM     20  C   UNL     1      47.515  84.463  43.739  0.00  0.00    +0.252 C 
ENDBRANCH  16  19
TORSDOF 1
