REMARK  Name = Dezocine
REMARK  0 active torsions:
REMARK  status: ('A' for Active; 'I' for Inactive)
REMARK                            x       y       z     vdW  Elec       q    Type
REMARK                         _______ _______ _______ _____ _____    ______ ____
ROOT
ATOM      1  C   UNL     1      47.744  80.526  42.563  0.00  0.00    +0.006 C 
ATOM      2  C   UNL     1      48.207  81.967  42.279  0.00  0.00    +0.035 C 
ATOM      3  C   UNL     1      47.384  82.822  43.193  0.00  0.00    +0.005 C 
ATOM      4  C   UNL     1      47.794  84.266  43.224  0.00  0.00    +0.000 C 
ATOM      5  C   UNL     1      48.860  84.472  44.222  0.00  0.00    +0.000 C 
ATOM      6  C   UNL     1      50.261  84.493  43.761  0.00  0.00    +0.000 C 
ATOM      7  C   UNL     1      50.520  84.388  42.312  0.00  0.00    +0.002 C 
ATOM      8  C   UNL     1      50.447  83.012  41.726  0.00  0.00    +0.022 C 
ATOM      9  C   UNL     1      49.664  82.011  42.491  0.00  0.00    +0.096 C 
ATOM     10  N   UNL     1      50.173  80.684  42.078  0.00  0.00    -0.133 NA
ATOM     11  C   UNL     1      50.080  83.138  40.278  0.00  0.00    +0.027 C 
ATOM     12  C   UNL     1      48.701  82.762  39.957  0.00  0.00    -0.026 A 
ATOM     13  C   UNL     1      47.843  82.228  40.865  0.00  0.00    -0.022 A 
ATOM     14  C   UNL     1      46.552  81.910  40.444  0.00  0.00    +0.037 A 
ATOM     15  C   UNL     1      46.145  82.124  39.152  0.00  0.00    +0.195 A 
ATOM     16  C   UNL     1      47.018  82.668  38.223  0.00  0.00    +0.042 A 
ATOM     17  C   UNL     1      48.283  82.975  38.657  0.00  0.00    -0.001 A 
ATOM     18  O   UNL     1      44.855  81.801  38.746  0.00  0.00    -0.287 OA
ENDROOT
TORSDOF 0
