REMARK  Name = Dhaq_diacetate
REMARK  12 active torsions:
REMARK  status: ('A' for Active; 'I' for Inactive)
REMARK    1  A    between atoms: C_11  and  N_34
REMARK    2  A    between atoms: C_14  and  N_15
REMARK    3  A    between atoms: N_15  and  C_16
REMARK    4  A    between atoms: C_16  and  C_17
REMARK    5  A    between atoms: C_17  and  N_18
REMARK    6  A    between atoms: N_18  and  C_19
REMARK    7  A    between atoms: C_19  and  C_20
REMARK    8  A    between atoms: N_34  and  C_35
REMARK    9  A    between atoms: C_35  and  C_36
REMARK   10  A    between atoms: C_36  and  N_37
REMARK   11  A    between atoms: N_37  and  C_38
REMARK   12  A    between atoms: C_38  and  C_39
REMARK                            x       y       z     vdW  Elec       q    Type
REMARK                         _______ _______ _______ _____ _____    ______ ____
ROOT
ATOM      1  C   UNL     1      43.505  77.404  39.618  0.00  0.00    +0.126 C 
ATOM      2  C   UNL     1      44.058  76.870  40.874  0.00  0.00    +0.365 C 
ATOM      3  O   UNL     1      43.360  76.096  41.548  0.00  0.00    -0.246 OA
ATOM      4  O   UNL     1      45.318  77.222  41.291  0.00  0.00    -0.246 OA
ENDROOT
TORSDOF 0
REMARK  Name = Dhaq_diacetate
REMARK  12 active torsions:
REMARK  status: ('A' for Active; 'I' for Inactive)
REMARK    1  A    between atoms: C_11  and  N_34
REMARK    2  A    between atoms: C_14  and  N_15
REMARK    3  A    between atoms: N_15  and  C_16
REMARK    4  A    between atoms: C_16  and  C_17
REMARK    5  A    between atoms: C_17  and  N_18
REMARK    6  A    between atoms: N_18  and  C_19
REMARK    7  A    between atoms: C_19  and  C_20
REMARK    8  A    between atoms: N_34  and  C_35
REMARK    9  A    between atoms: C_35  and  C_36
REMARK   10  A    between atoms: C_36  and  N_37
REMARK   11  A    between atoms: N_37  and  C_38
REMARK   12  A    between atoms: C_38  and  C_39
REMARK                            x       y       z     vdW  Elec       q    Type
REMARK                         _______ _______ _______ _____ _____    ______ ____
ROOT
ATOM      1  C   UNL     1      43.391  77.516  39.746  0.00  0.00    +0.126 C 
ATOM      2  C   UNL     1      44.175  76.721  40.728  0.00  0.00    +0.365 C 
ATOM      3  O   UNL     1      43.836  75.580  41.127  0.00  0.00    -0.246 OA
ATOM      4  O   UNL     1      45.351  77.242  41.250  0.00  0.00    -0.246 OA
ENDROOT
TORSDOF 0
REMARK  Name = Dhaq_diacetate
REMARK  12 active torsions:
REMARK  status: ('A' for Active; 'I' for Inactive)
REMARK    1  A    between atoms: C_11  and  N_34
REMARK    2  A    between atoms: C_14  and  N_15
REMARK    3  A    between atoms: N_15  and  C_16
REMARK    4  A    between atoms: C_16  and  C_17
REMARK    5  A    between atoms: C_17  and  N_18
REMARK    6  A    between atoms: N_18  and  C_19
REMARK    7  A    between atoms: C_19  and  C_20
REMARK    8  A    between atoms: N_34  and  C_35
REMARK    9  A    between atoms: C_35  and  C_36
REMARK   10  A    between atoms: C_36  and  N_37
REMARK   11  A    between atoms: N_37  and  C_38
REMARK   12  A    between atoms: C_38  and  C_39
REMARK                            x       y       z     vdW  Elec       q    Type
REMARK                         _______ _______ _______ _____ _____    ______ ____
ROOT
ATOM      1  C   UNL     1      44.147  76.484  41.233  0.00  0.00    +0.018 A 
ATOM      2  C   UNL     1      43.340  76.780  40.176  0.00  0.00    +0.018 A 
ATOM      3  C   UNL     1      43.510  77.973  39.454  0.00  0.00    +0.068 A 
ATOM      4  C   UNL     1      44.502  78.810  39.852  0.00  0.00    +0.058 A 
ATOM      5  C   UNL     1      45.349  78.505  40.956  0.00  0.00    +0.058 A 
ATOM      6  C   UNL     1      45.180  77.350  41.649  0.00  0.00    +0.068 A 
ATOM      7  C   UNL     1      46.404  79.422  41.348  0.00  0.00    +0.200 C 
ATOM      8  O   UNL     1      47.202  79.226  42.318  0.00  0.00    -0.286 OA
ATOM      9  C   UNL     1      46.605  80.667  40.614  0.00  0.00    +0.084 A 
ATOM     10  C   UNL     1      47.615  81.543  40.993  0.00  0.00    +0.199 A 
ATOM     11  C   UNL     1      47.800  82.722  40.292  0.00  0.00    +0.045 A 
ATOM     12  C   UNL     1      46.977  83.011  39.224  0.00  0.00    +0.045 A 
ATOM     13  C   UNL     1      45.964  82.158  38.826  0.00  0.00    +0.199 A 
ATOM     14  C   UNL     1      45.813  80.982  39.559  0.00  0.00    +0.084 A 
ATOM     15  C   UNL     1      44.738  80.048  39.158  0.00  0.00    +0.200 C 
ATOM     16  O   UNL     1      44.026  80.375  38.176  0.00  0.00    -0.286 OA
ATOM     17  O   UNL     1      45.129  82.409  37.775  0.00  0.00    -0.286 OA
ATOM     18  O   UNL     1      48.415  81.209  42.070  0.00  0.00    -0.286 OA
ENDROOT
BRANCH   6  19
ATOM     19  N   UNL     1      45.938  76.979  42.782  0.00  0.00    -0.240 NA
BRANCH  19  20
ATOM     20  C   UNL     1      45.702  75.677  43.444  0.00  0.00    +0.081 C 
BRANCH  20  21
ATOM     21  C   UNL     1      46.249  74.525  42.661  0.00  0.00    -0.129 C 
BRANCH  21  22
ATOM     22  N   UNL     1      45.937  73.316  43.402  0.00  0.00    +0.377 NA
BRANCH  22  23
ATOM     23  C   UNL     1      44.596  72.906  43.018  0.00  0.00    -0.116 C 
BRANCH  23  24
ATOM     24  C   UNL     1      44.527  71.400  43.216  0.00  0.00    +0.151 C 
ATOM     25  O   UNL     1      43.244  70.933  42.942  0.00  0.00    -0.223 OA
ENDBRANCH  23  24
ENDBRANCH  22  23
ENDBRANCH  21  22
ENDBRANCH  20  21
ENDBRANCH  19  20
ENDBRANCH   6  19
BRANCH   3  26
ATOM     26  N   UNL     1      42.646  78.211  38.383  0.00  0.00    -0.240 NA
BRANCH  26  27
ATOM     27  C   UNL     1      41.593  77.246  38.020  0.00  0.00    +0.081 C 
BRANCH  27  28
ATOM     28  C   UNL     1      40.853  77.790  36.844  0.00  0.00    -0.129 C 
BRANCH  28  29
ATOM     29  N   UNL     1      39.793  76.951  36.380  0.00  0.00    +0.377 NA
BRANCH  29  30
ATOM     30  C   UNL     1      38.658  77.037  37.280  0.00  0.00    -0.116 C 
BRANCH  30  31
ATOM     31  C   UNL     1      37.372  76.704  36.531  0.00  0.00    +0.151 C 
ATOM     32  O   UNL     1      36.651  77.821  36.185  0.00  0.00    -0.223 OA
ENDBRANCH  30  31
ENDBRANCH  29  30
ENDBRANCH  28  29
ENDBRANCH  27  28
ENDBRANCH  26  27
ENDBRANCH   3  26
TORSDOF 12
