REMARK  Name = Diatrizoate
REMARK  3 active torsions:
REMARK  status: ('A' for Active; 'I' for Inactive)
REMARK    1  A    between atoms: N_4  and  C_5
REMARK    2  A    between atoms: C_7  and  N_16
REMARK    3  A    between atoms: C_9  and  C_12
REMARK                            x       y       z     vdW  Elec       q    Type
REMARK                         _______ _______ _______ _____ _____    ______ ____
ROOT
ATOM      1  C   UNL     1      47.861  80.746  41.044  0.00  0.00    +0.085 A 
ATOM      2  C   UNL     1      47.193  79.740  41.714  0.00  0.00    +0.061 A 
ATOM      3  C   UNL     1      45.919  79.391  41.317  0.00  0.00    +0.085 A 
ATOM      4  C   UNL     1      45.342  80.053  40.262  0.00  0.00    +0.053 A 
ATOM      5  C   UNL     1      45.973  81.063  39.566  0.00  0.00    +0.093 A 
ATOM      6  C   UNL     1      47.247  81.402  39.973  0.00  0.00    +0.053 A 
ATOM      7  I   UNL     1      48.252  82.933  38.946  0.00  0.00    -0.041 I 
ATOM      8  I   UNL     1      43.407  79.505  39.678  0.00  0.00    -0.041 I 
ATOM      9  I   UNL     1      48.120  78.753  43.327  0.00  0.00    -0.040 I 
ENDROOT
BRANCH   1  13
ATOM     10  C   UNL     1      50.726  82.824  42.510  0.00  0.00    +0.097 C 
ATOM     11  C   UNL     1      49.362  82.340  42.168  0.00  0.00    +0.246 C 
ATOM     12  O   UNL     1      48.328  82.952  42.541  0.00  0.00    -0.273 OA
ATOM     13  N   UNL     1      49.175  81.156  41.400  0.00  0.00    -0.178 NA
ENDBRANCH   1  13
BRANCH   3  14
ATOM     14  N   UNL     1      45.201  78.358  41.985  0.00  0.00    -0.178 NA
ATOM     15  C   UNL     1      44.951  77.090  41.400  0.00  0.00    +0.246 C 
ATOM     16  O   UNL     1      45.362  76.931  40.211  0.00  0.00    -0.273 OA
ATOM     17  C   UNL     1      44.256  75.982  42.085  0.00  0.00    +0.097 C 
ENDBRANCH   3  14
BRANCH   5  18
ATOM     18  C   UNL     1      45.329  81.739  38.455  0.00  0.00    +0.389 C 
ATOM     19  O   UNL     1      45.963  81.966  37.402  0.00  0.00    -0.241 OA
ATOM     20  O   UNL     1      44.013  82.144  38.535  0.00  0.00    -0.241 OA
ENDBRANCH   5  18
TORSDOF 3
