REMARK  Name = Dibenzepin
REMARK  3 active torsions:
REMARK  status: ('A' for Active; 'I' for Inactive)
REMARK    1  A    between atoms: N_11  and  C_18
REMARK    2  A    between atoms: C_18  and  C_19
REMARK    3  A    between atoms: C_19  and  N_20
REMARK                            x       y       z     vdW  Elec       q    Type
REMARK                         _______ _______ _______ _____ _____    ______ ____
ROOT
ATOM      1  C   UNL     1      47.843  79.011  42.084  0.00  0.00    +0.117 C 
ATOM      2  N   UNL     1      46.723  79.559  41.316  0.00  0.00    -0.284 N 
ATOM      3  C   UNL     1      46.916  80.901  40.822  0.00  0.00    +0.056 A 
ATOM      4  C   UNL     1      47.787  81.611  41.626  0.00  0.00    +0.015 A 
ATOM      5  C   UNL     1      48.083  82.898  41.273  0.00  0.00    +0.001 A 
ATOM      6  C   UNL     1      47.537  83.491  40.143  0.00  0.00    +0.000 A 
ATOM      7  C   UNL     1      46.673  82.753  39.367  0.00  0.00    +0.006 A 
ATOM      8  C   UNL     1      46.368  81.456  39.715  0.00  0.00    +0.067 A 
ATOM      9  C   UNL     1      45.415  80.827  38.791  0.00  0.00    +0.254 C 
ATOM     10  O   UNL     1      45.473  81.254  37.604  0.00  0.00    -0.270 OA
ATOM     11  N   UNL     1      44.435  79.809  39.042  0.00  0.00    -0.253 N 
ATOM     12  C   UNL     1      44.587  78.862  40.110  0.00  0.00    +0.068 A 
ATOM     13  C   UNL     1      43.561  77.951  40.092  0.00  0.00    +0.016 A 
ATOM     14  C   UNL     1      43.513  76.953  41.045  0.00  0.00    +0.001 A 
ATOM     15  C   UNL     1      44.491  76.856  42.025  0.00  0.00    +0.001 A 
ATOM     16  C   UNL     1      45.532  77.762  42.063  0.00  0.00    +0.016 A 
ATOM     17  C   UNL     1      45.570  78.754  41.106  0.00  0.00    +0.065 A 
ENDROOT
BRANCH  11  18
ATOM     18  C   UNL     1      43.293  79.758  38.191  0.00  0.00    +0.116 C 
BRANCH  18  19
ATOM     19  C   UNL     1      42.119  78.987  38.702  0.00  0.00    +0.094 C 
BRANCH  19  20
ATOM     20  N   UNL     1      41.536  78.190  37.654  0.00  0.00    -0.269 NA
ATOM     21  C   UNL     1      41.071  76.903  38.050  0.00  0.00    +0.090 C 
ATOM     22  C   UNL     1      40.772  78.891  36.687  0.00  0.00    +0.090 C 
ENDBRANCH  19  20
ENDBRANCH  18  19
ENDBRANCH  11  18
TORSDOF 3
