REMARK  Name = Diclofenac
REMARK  4 active torsions:
REMARK  status: ('A' for Active; 'I' for Inactive)
REMARK    1  A    between atoms: C_4  and  N_11
REMARK    2  A    between atoms: C_5  and  C_7
REMARK    3  A    between atoms: C_7  and  C_8
REMARK    4  A    between atoms: N_11  and  C_12
REMARK                            x       y       z     vdW  Elec       q    Type
REMARK                         _______ _______ _______ _____ _____    ______ ____
ROOT
ATOM      1  C   UNL     1      45.958  81.694  38.610  0.00  0.00    -0.000 A 
ATOM      2  C   UNL     1      46.993  82.596  38.874  0.00  0.00    +0.001 A 
ATOM      3  C   UNL     1      47.618  82.546  40.119  0.00  0.00    +0.016 A 
ATOM      4  C   UNL     1      47.249  81.640  41.093  0.00  0.00    +0.067 A 
ATOM      5  C   UNL     1      46.226  80.758  40.814  0.00  0.00    +0.004 A 
ATOM      6  C   UNL     1      45.583  80.785  39.577  0.00  0.00    -0.002 A 
ENDROOT
BRANCH   5   7
ATOM      7  C   UNL     1      45.807  79.784  41.824  0.00  0.00    +0.142 C 
BRANCH   7   8
ATOM      8  C   UNL     1      45.917  78.418  41.261  0.00  0.00    +0.369 C 
ATOM      9  O   UNL     1      45.575  77.427  41.955  0.00  0.00    -0.245 OA
ATOM     10  O   UNL     1      46.386  78.154  39.984  0.00  0.00    -0.245 OA
ENDBRANCH   7   8
ENDBRANCH   5   7
BRANCH   4  11
ATOM     11  N   UNL     1      47.916  81.631  42.338  0.00  0.00    -0.211 NA
BRANCH  11  12
ATOM     12  C   UNL     1      48.897  82.572  42.719  0.00  0.00    +0.091 A 
ATOM     13  C   UNL     1      50.228  82.238  42.648  0.00  0.00    +0.074 A 
ATOM     14  C   UNL     1      51.245  83.107  43.005  0.00  0.00    +0.013 A 
ATOM     15  C   UNL     1      50.903  84.365  43.452  0.00  0.00    +0.002 A 
ATOM     16  C   UNL     1      49.575  84.710  43.528  0.00  0.00    +0.013 A 
ATOM     17  C   UNL     1      48.571  83.836  43.170  0.00  0.00    +0.074 A 
ATOM     18 CL   UNL     1      46.888  84.351  43.295  0.00  0.00    -0.081 Cl
ATOM     19 CL   UNL     1      50.715  80.648  42.084  0.00  0.00    -0.081 Cl
ENDBRANCH  11  12
ENDBRANCH   4  11
TORSDOF 4
