REMARK  Name = Dicumarol
REMARK  2 active torsions:
REMARK  status: ('A' for Active; 'I' for Inactive)
REMARK    1  A    between atoms: C_8  and  C_12
REMARK    2  A    between atoms: C_12  and  C_13
REMARK                            x       y       z     vdW  Elec       q    Type
REMARK                         _______ _______ _______ _____ _____    ______ ____
ROOT
ATOM      1  C   UNL     1      47.708  80.371  40.102  0.00  0.00    +0.072 C 
ENDROOT
BRANCH   1   9
ATOM      2  C   UNL     1      42.487  77.115  39.838  0.00  0.00    +0.000 A 
ATOM      3  C   UNL     1      41.781  77.986  39.056  0.00  0.00    +0.003 A 
ATOM      4  C   UNL     1      42.384  79.154  38.639  0.00  0.00    +0.038 A 
ATOM      5  C   UNL     1      43.705  79.427  39.023  0.00  0.00    +0.152 A 
ATOM      6  C   UNL     1      44.404  78.543  39.809  0.00  0.00    +0.073 A 
ATOM      7  C   UNL     1      43.786  77.381  40.216  0.00  0.00    +0.006 A 
ATOM      8  C   UNL     1      45.722  78.849  40.174  0.00  0.00    +0.201 A 
ATOM      9  C   UNL     1      46.340  80.002  39.773  0.00  0.00    +0.097 A 
ATOM     10  C   UNL     1      45.544  80.835  38.974  0.00  0.00    +0.345 A 
ATOM     11  O   UNL     1      46.074  81.906  38.580  0.00  0.00    -0.245 OA
ATOM     12  O   UNL     1      44.307  80.522  38.648  0.00  0.00    -0.421 OA
ATOM     13  O   UNL     1      46.421  77.940  40.974  0.00  0.00    -0.287 OA
ENDBRANCH   1   9
BRANCH   1  14
ATOM     14  C   UNL     1      47.910  81.562  40.920  0.00  0.00    +0.097 A 
ATOM     15  C   UNL     1      49.122  82.060  41.348  0.00  0.00    +0.201 A 
ATOM     16  C   UNL     1      49.184  83.193  42.145  0.00  0.00    +0.073 A 
ATOM     17  C   UNL     1      50.376  83.688  42.568  0.00  0.00    +0.006 A 
ATOM     18  C   UNL     1      50.430  84.829  43.369  0.00  0.00    +0.000 A 
ATOM     19  C   UNL     1      49.270  85.468  43.740  0.00  0.00    +0.003 A 
ATOM     20  C   UNL     1      48.067  84.955  43.303  0.00  0.00    +0.038 A 
ATOM     21  C   UNL     1      48.022  83.829  42.513  0.00  0.00    +0.152 A 
ATOM     22  O   UNL     1      46.899  83.345  42.102  0.00  0.00    -0.421 OA
ATOM     23  C   UNL     1      46.798  82.274  41.346  0.00  0.00    +0.345 A 
ATOM     24  O   UNL     1      45.605  81.934  41.035  0.00  0.00    -0.245 OA
ATOM     25  O   UNL     1      50.277  81.431  40.984  0.00  0.00    -0.287 OA
ENDBRANCH   1  14
TORSDOF 2
