REMARK  Name = Didanosine
REMARK  2 active torsions:
REMARK  status: ('A' for Active; 'I' for Inactive)
REMARK    1  A    between atoms: C_3  and  N_8
REMARK    2  A    between atoms: C_5  and  C_6
REMARK                            x       y       z     vdW  Elec       q    Type
REMARK                         _______ _______ _______ _____ _____    ______ ____
ROOT
ATOM      1  N   UNL     1      45.508  79.197  40.858  0.00  0.00    -0.271 N 
ATOM      2  C   UNL     1      44.661  78.791  39.896  0.00  0.00    +0.182 A 
ATOM      3  N   UNL     1      44.653  79.715  38.917  0.00  0.00    -0.217 NA
ATOM      4  C   UNL     1      45.507  80.715  39.275  0.00  0.00    +0.175 A 
ATOM      5  C   UNL     1      46.048  80.389  40.501  0.00  0.00    +0.171 A 
ATOM      6  N   UNL     1      46.944  81.186  41.138  0.00  0.00    -0.205 NA
ATOM      7  C   UNL     1      47.306  82.332  40.533  0.00  0.00    +0.203 A 
ATOM      8  N   UNL     1      46.784  82.660  39.337  0.00  0.00    -0.184 NA
ATOM      9  C   UNL     1      45.900  81.893  38.689  0.00  0.00    +0.301 A 
ATOM     10  O   UNL     1      45.407  82.187  37.575  0.00  0.00    -0.263 OA
ENDROOT
BRANCH   1  13
ATOM     11  C   UNL     1      44.668  76.452  42.340  0.00  0.00    +0.037 C 
ATOM     12  C   UNL     1      44.545  77.915  42.712  0.00  0.00    +0.057 C 
ATOM     13  C   UNL     1      45.798  78.482  42.080  0.00  0.00    +0.207 C 
ATOM     14  O   UNL     1      46.715  77.481  41.934  0.00  0.00    -0.335 OA
ATOM     15  C   UNL     1      46.169  76.287  42.304  0.00  0.00    +0.150 C 
BRANCH  15  16
ATOM     16  C   UNL     1      46.606  75.148  41.410  0.00  0.00    +0.211 C 
ATOM     17  O   UNL     1      46.690  75.486  40.083  0.00  0.00    -0.218 OA
ENDBRANCH  15  16
ENDBRANCH   1  13
TORSDOF 2
