REMARK  Name = Dienestrol
REMARK  3 active torsions:
REMARK  status: ('A' for Active; 'I' for Inactive)
REMARK    1  A    between atoms: C_3  and  C_4
REMARK    2  A    between atoms: C_3  and  C_11
REMARK    3  A    between atoms: C_11  and  C_14
REMARK                            x       y       z     vdW  Elec       q    Type
REMARK                         _______ _______ _______ _____ _____    ______ ____
ROOT
ATOM      1  C   UNL     1      49.172  79.458  40.794  0.00  0.00    +0.031 C 
ATOM      2  C   UNL     1      48.738  80.325  41.899  0.00  0.00    -0.026 C 
ATOM      3  C   UNL     1      48.123  81.461  41.794  0.00  0.00    -0.005 C 
ENDROOT
BRANCH   3   4
ATOM      4  C   UNL     1      46.924  81.514  40.933  0.00  0.00    -0.000 A 
ATOM      5  C   UNL     1      45.865  80.641  41.031  0.00  0.00    +0.003 A 
ATOM      6  C   UNL     1      44.811  80.612  40.130  0.00  0.00    +0.042 A 
ATOM      7  C   UNL     1      44.786  81.483  39.075  0.00  0.00    +0.196 A 
ATOM      8  C   UNL     1      45.813  82.370  38.931  0.00  0.00    +0.042 A 
ATOM      9  C   UNL     1      46.849  82.382  39.832  0.00  0.00    +0.003 A 
ATOM     10  O   UNL     1      43.706  81.405  38.210  0.00  0.00    -0.287 OA
ENDBRANCH   3   4
BRANCH   3  11
ATOM     11  C   UNL     1      48.654  82.660  42.457  0.00  0.00    -0.005 C 
ATOM     12  C   UNL     1      47.829  83.569  42.897  0.00  0.00    -0.026 C 
ATOM     13  C   UNL     1      48.209  84.982  43.083  0.00  0.00    +0.031 C 
BRANCH  11  14
ATOM     14  C   UNL     1      50.083  82.813  42.690  0.00  0.00    -0.000 A 
ATOM     15  C   UNL     1      51.009  83.048  41.708  0.00  0.00    +0.003 A 
ATOM     16  C   UNL     1      52.358  83.072  41.947  0.00  0.00    +0.042 A 
ATOM     17  C   UNL     1      52.880  82.863  43.200  0.00  0.00    +0.196 A 
ATOM     18  C   UNL     1      51.988  82.626  44.211  0.00  0.00    +0.042 A 
ATOM     19  C   UNL     1      50.631  82.601  43.964  0.00  0.00    +0.003 A 
ATOM     20  O   UNL     1      54.224  82.891  43.423  0.00  0.00    -0.287 OA
ENDBRANCH  11  14
ENDBRANCH   3  11
TORSDOF 3
