REMARK  Name = Diethylstilbestrol
REMARK  4 active torsions:
REMARK  status: ('A' for Active; 'I' for Inactive)
REMARK    1  A    between atoms: C_2  and  C_3
REMARK    2  A    between atoms: C_3  and  C_14
REMARK    3  A    between atoms: C_4  and  C_5
REMARK    4  A    between atoms: C_4  and  C_7
REMARK                            x       y       z     vdW  Elec       q    Type
REMARK                         _______ _______ _______ _____ _____    ______ ____
ROOT
ATOM      1  C   UNL     1      48.026  81.686  41.596  0.00  0.00    -0.026 C 
ATOM      2  C   UNL     1      48.575  82.810  41.961  0.00  0.00    -0.026 C 
ENDROOT
BRANCH   2   3
ATOM      3  C   UNL     1      50.004  82.828  42.413  0.00  0.00    -0.004 A 
ATOM      4  C   UNL     1      50.304  82.594  43.733  0.00  0.00    +0.003 A 
ATOM      5  C   UNL     1      51.624  82.602  44.171  0.00  0.00    +0.042 A 
ATOM      6  C   UNL     1      52.637  82.847  43.267  0.00  0.00    +0.196 A 
ATOM      7  C   UNL     1      52.294  83.077  41.951  0.00  0.00    +0.042 A 
ATOM      8  C   UNL     1      50.996  83.076  41.489  0.00  0.00    +0.003 A 
ATOM      9  O   UNL     1      53.969  82.858  43.691  0.00  0.00    -0.287 OA
ENDBRANCH   2   3
BRANCH   1  10
ATOM     10  C   UNL     1      46.878  81.487  40.736  0.00  0.00    -0.004 A 
ATOM     11  C   UNL     1      46.642  82.302  39.653  0.00  0.00    +0.003 A 
ATOM     12  C   UNL     1      45.520  82.171  38.863  0.00  0.00    +0.042 A 
ATOM     13  C   UNL     1      44.581  81.199  39.139  0.00  0.00    +0.196 A 
ATOM     14  C   UNL     1      44.803  80.375  40.221  0.00  0.00    +0.042 A 
ATOM     15  C   UNL     1      45.926  80.528  40.989  0.00  0.00    +0.003 A 
ATOM     16  O   UNL     1      43.445  81.065  38.339  0.00  0.00    -0.287 OA
ENDBRANCH   1  10
BRANCH   1  18
ATOM     17  C   UNL     1      49.259  79.701  40.774  0.00  0.00    +0.005 C 
ATOM     18  C   UNL     1      48.677  80.384  42.009  0.00  0.00    +0.026 C 
ENDBRANCH   1  18
BRANCH   2  19
ATOM     19  C   UNL     1      47.972  84.150  42.091  0.00  0.00    +0.026 C 
ATOM     20  C   UNL     1      47.578  84.626  43.425  0.00  0.00    +0.005 C 
ENDBRANCH   2  19
TORSDOF 4
