REMARK  Name = Difelikefalin
REMARK  18 active torsions:
REMARK  status: ('A' for Active; 'I' for Inactive)
REMARK    1  A    between atoms: C_2  and  C_4
REMARK    2  A    between atoms: C_4  and  C_5
REMARK    3  A    between atoms: C_5  and  C_6
REMARK    4  A    between atoms: C_5  and  N_27
REMARK    5  A    between atoms: N_8  and  C_9
REMARK    6  A    between atoms: C_9  and  C_10
REMARK    7  A    between atoms: C_9  and  C_15
REMARK    8  A    between atoms: C_10  and  C_11
REMARK    9  A    between atoms: C_11  and  C_12
REMARK   10  A    between atoms: C_12  and  C_13
REMARK   11  A    between atoms: C_20  and  C_23
REMARK   12  A    between atoms: C_28  and  C_30
REMARK   13  A    between atoms: C_30  and  C_31
REMARK   14  A    between atoms: C_30  and  N_38
REMARK   15  A    between atoms: C_31  and  C_32
REMARK   16  A    between atoms: C_39  and  C_41
REMARK   17  A    between atoms: C_41  and  C_42
REMARK   18  A    between atoms: C_42  and  C_43
REMARK                            x       y       z     vdW  Elec       q    Type
REMARK                         _______ _______ _______ _____ _____    ______ ____
ROOT
ATOM      1  C   UNL     1      50.253  80.732  44.280  0.00  0.00    +0.173 C 
ENDROOT
BRANCH   1   2
ATOM      2  C   UNL     1      50.364  81.121  45.730  0.00  0.00    +0.262 C 
ATOM      3  O   UNL     1      49.566  81.926  46.269  0.00  0.00    -0.271 OA
ATOM      4  N   UNL     1      51.381  80.593  46.561  0.00  0.00    -0.196 NA
BRANCH   4   5
ATOM      5  C   UNL     1      51.545  81.022  47.978  0.00  0.00    +0.171 C 
BRANCH   5   6
ATOM      6  C   UNL     1      51.181  79.930  48.875  0.00  0.00    +0.245 C 
ATOM      7  O   UNL     1      51.089  78.757  48.366  0.00  0.00    -0.273 OA
ATOM      8  N   UNL     1      50.913  80.015  50.255  0.00  0.00    -0.278 N 
ATOM      9  C   UNL     1      50.846  78.819  51.066  0.00  0.00    +0.095 C 
ATOM     10  C   UNL     1      49.572  78.785  51.841  0.00  0.00    +0.050 C 
ATOM     11  C   UNL     1      49.317  80.079  52.583  0.00  0.00    +0.173 C 
ATOM     12  C   UNL     1      49.350  81.221  51.627  0.00  0.00    +0.050 C 
ATOM     13  C   UNL     1      50.658  81.291  50.881  0.00  0.00    +0.095 C 
ATOM     14  N   UNL     1      47.937  79.951  53.101  0.00  0.00    -0.123 NA
BRANCH  11  15
ATOM     15  C   UNL     1      50.259  80.242  53.693  0.00  0.00    +0.380 C 
ATOM     16  O   UNL     1      50.302  81.242  54.446  0.00  0.00    -0.244 OA
ATOM     17  O   UNL     1      51.197  79.228  53.964  0.00  0.00    -0.244 OA
ENDBRANCH  11  15
ENDBRANCH   5   6
BRANCH   5  18
ATOM     18  C   UNL     1      53.051  81.337  48.016  0.00  0.00    +0.031 C 
BRANCH  18  19
ATOM     19  C   UNL     1      53.402  82.751  48.208  0.00  0.00    +0.004 C 
BRANCH  19  20
ATOM     20  C   UNL     1      54.728  82.981  48.922  0.00  0.00    +0.021 C 
BRANCH  20  21
ATOM     21  C   UNL     1      55.848  82.532  48.031  0.00  0.00    +0.109 C 
ATOM     22  N   UNL     1      57.123  82.785  48.680  0.00  0.00    -0.131 NA
ENDBRANCH  20  21
ENDBRANCH  19  20
ENDBRANCH  18  19
ENDBRANCH   5  18
ENDBRANCH   4   5
ENDBRANCH   1   2
BRANCH   1  23
ATOM     23  N   UNL     1      48.868  80.979  43.947  0.00  0.00    -0.196 NA
ATOM     24  C   UNL     1      48.242  80.648  42.730  0.00  0.00    +0.262 C 
ATOM     25  O   UNL     1      48.791  79.672  42.103  0.00  0.00    -0.271 OA
BRANCH  24  26
ATOM     26  C   UNL     1      47.048  81.330  42.171  0.00  0.00    +0.177 C 
BRANCH  26  27
ATOM     27  N   UNL     1      46.453  80.511  41.135  0.00  0.00    -0.196 NA
ATOM     28  C   UNL     1      45.308  80.922  40.365  0.00  0.00    +0.260 C 
ATOM     29  O   UNL     1      44.817  82.031  40.654  0.00  0.00    -0.272 OA
BRANCH  28  30
ATOM     30  C   UNL     1      44.743  80.093  39.296  0.00  0.00    +0.174 C 
ATOM     31  N   UNL     1      45.107  80.721  38.011  0.00  0.00    -0.123 NA
BRANCH  30  32
ATOM     32  C   UNL     1      43.227  80.040  39.300  0.00  0.00    +0.055 C 
BRANCH  32  33
ATOM     33  C   UNL     1      42.737  78.645  39.191  0.00  0.00    -0.020 A 
ATOM     34  C   UNL     1      41.413  78.341  39.221  0.00  0.00    -0.004 A 
ATOM     35  C   UNL     1      40.931  77.048  39.122  0.00  0.00    -0.000 A 
ATOM     36  C   UNL     1      41.857  76.023  38.985  0.00  0.00    -0.000 A 
ATOM     37  C   UNL     1      43.209  76.303  38.952  0.00  0.00    -0.000 A 
ATOM     38  C   UNL     1      43.642  77.603  39.054  0.00  0.00    -0.004 A 
ENDBRANCH  32  33
ENDBRANCH  30  32
ENDBRANCH  28  30
ENDBRANCH  26  27
BRANCH  26  39
ATOM     39  C   UNL     1      47.461  82.635  41.550  0.00  0.00    +0.057 C 
BRANCH  39  40
ATOM     40  C   UNL     1      47.970  83.612  42.522  0.00  0.00    -0.020 A 
ATOM     41  C   UNL     1      47.355  83.834  43.730  0.00  0.00    -0.004 A 
ATOM     42  C   UNL     1      47.882  84.761  44.599  0.00  0.00    -0.000 A 
ATOM     43  C   UNL     1      49.010  85.466  44.278  0.00  0.00    -0.000 A 
ATOM     44  C   UNL     1      49.640  85.260  43.075  0.00  0.00    -0.000 A 
ATOM     45  C   UNL     1      49.101  84.327  42.213  0.00  0.00    -0.004 A 
ENDBRANCH  39  40
ENDBRANCH  26  39
ENDBRANCH  24  26
ENDBRANCH   1  23
BRANCH   1  46
ATOM     46  C   UNL     1      51.134  81.624  43.462  0.00  0.00    +0.031 C 
BRANCH  46  48
ATOM     47  C   UNL     1      52.922  82.154  41.929  0.00  0.00    +0.000 C 
ATOM     48  C   UNL     1      52.270  81.015  42.750  0.00  0.00    +0.002 C 
ATOM     49  C   UNL     1      51.813  80.006  41.736  0.00  0.00    +0.000 C 
ENDBRANCH  46  48
ENDBRANCH   1  46
TORSDOF 18
