REMARK  Name = Diflorasone
REMARK  2 active torsions:
REMARK  status: ('A' for Active; 'I' for Inactive)
REMARK    1  A    between atoms: C_19  and  C_20
REMARK    2  A    between atoms: C_20  and  C_22
REMARK                            x       y       z     vdW  Elec       q    Type
REMARK                         _______ _______ _______ _____ _____    ______ ____
ROOT
ATOM      1  C   UNL     1      52.078  83.841  42.154  0.00  0.00    +0.003 C 
ATOM      2  C   UNL     1      50.582  83.953  42.246  0.00  0.00    +0.035 C 
ATOM      3  C   UNL     1      49.883  83.525  40.969  0.00  0.00    +0.003 C 
ATOM      4  C   UNL     1      49.549  82.070  41.166  0.00  0.00    +0.006 C 
ATOM      5  C   UNL     1      48.230  81.751  40.516  0.00  0.00    +0.036 C 
ATOM      6  C   UNL     1      48.454  81.879  39.014  0.00  0.00    +0.042 C 
ATOM      7  C   UNL     1      47.197  81.617  38.257  0.00  0.00    +0.180 C 
ATOM      8  C   UNL     1      46.200  81.080  39.270  0.00  0.00    -0.003 C 
ATOM      9  C   UNL     1      45.023  81.641  39.374  0.00  0.00    +0.036 C 
ATOM     10  C   UNL     1      44.005  81.192  40.312  0.00  0.00    +0.195 C 
ATOM     11  O   UNL     1      42.882  81.748  40.394  0.00  0.00    -0.287 OA
ATOM     12  C   UNL     1      44.381  80.059  41.140  0.00  0.00    +0.038 C 
ATOM     13  C   UNL     1      45.561  79.513  41.024  0.00  0.00    -0.017 C 
ATOM     14  C   UNL     1      46.606  79.957  40.088  0.00  0.00    +0.066 C 
ATOM     15  C   UNL     1      47.859  80.348  40.884  0.00  0.00    +0.168 C 
ATOM     16  C   UNL     1      47.623  80.266  42.346  0.00  0.00    +0.182 C 
ATOM     17  C   UNL     1      48.488  81.079  43.203  0.00  0.00    +0.038 C 
ATOM     18  C   UNL     1      49.627  81.822  42.624  0.00  0.00    +0.035 C 
ATOM     19  C   UNL     1      50.000  83.084  43.340  0.00  0.00    +0.180 C 
ATOM     20  O   UNL     1      51.020  82.757  44.272  0.00  0.00    -0.218 OA
ATOM     21  C   UNL     1      50.855  80.894  42.806  0.00  0.00    +0.003 C 
ATOM     22  O   UNL     1      47.774  78.903  42.745  0.00  0.00    -0.220 OA
ATOM     23  F   UNL     1      48.854  79.442  40.565  0.00  0.00    -0.237 F 
ATOM     24  C   UNL     1      46.956  78.733  39.220  0.00  0.00    +0.011 C 
ATOM     25  F   UNL     1      46.734  82.797  37.723  0.00  0.00    -0.233 F 
ENDROOT
BRANCH  19  26
ATOM     26  C   UNL     1      48.965  83.803  44.053  0.00  0.00    +0.211 C 
ATOM     27  O   UNL     1      48.177  84.508  43.457  0.00  0.00    -0.291 OA
BRANCH  26  28
ATOM     28  C   UNL     1      48.833  83.698  45.516  0.00  0.00    +0.248 C 
ATOM     29  O   UNL     1      49.666  84.616  46.182  0.00  0.00    -0.212 OA
ENDBRANCH  26  28
ENDBRANCH  19  26
TORSDOF 2
