REMARK  Name = Difluprednate
REMARK  8 active torsions:
REMARK  status: ('A' for Active; 'I' for Inactive)
REMARK    1  A    between atoms: C_2  and  C_3
REMARK    2  A    between atoms: C_3  and  C_4
REMARK    3  A    between atoms: C_4  and  O_6
REMARK    4  A    between atoms: O_6  and  C_7
REMARK    5  A    between atoms: C_7  and  C_30
REMARK    6  A    between atoms: C_30  and  C_32
REMARK    7  A    between atoms: C_32  and  O_33
REMARK    8  A    between atoms: O_33  and  C_34
REMARK                            x       y       z     vdW  Elec       q    Type
REMARK                         _______ _______ _______ _____ _____    ______ ____
ROOT
ATOM      1  C   UNL     1      43.528  78.021  39.928  0.00  0.00    +0.190 C 
ATOM      2  C   UNL     1      42.825  79.063  40.710  0.00  0.00    +0.048 C 
ATOM      3  C   UNL     1      43.765  79.312  41.840  0.00  0.00    +0.004 C 
ATOM      4  C   UNL     1      45.143  78.890  41.367  0.00  0.00    +0.007 C 
ATOM      5  C   UNL     1      44.978  78.580  39.955  0.00  0.00    +0.043 C 
ATOM      6  C   UNL     1      45.090  79.800  39.109  0.00  0.00    +0.039 C 
ATOM      7  C   UNL     1      46.362  80.533  39.388  0.00  0.00    +0.182 C 
ATOM      8  C   UNL     1      46.303  81.059  40.817  0.00  0.00    +0.168 C 
ATOM      9  C   UNL     1      46.193  79.903  41.741  0.00  0.00    +0.036 C 
ATOM     10  C   UNL     1      47.501  79.182  41.858  0.00  0.00    +0.042 C 
ATOM     11  C   UNL     1      48.605  80.056  42.416  0.00  0.00    +0.180 C 
ATOM     12  C   UNL     1      48.709  81.193  41.428  0.00  0.00    -0.003 C 
ATOM     13  C   UNL     1      49.898  81.429  40.886  0.00  0.00    +0.036 C 
ATOM     14  C   UNL     1      50.015  82.522  39.931  0.00  0.00    +0.195 C 
ATOM     15  O   UNL     1      51.116  82.810  39.371  0.00  0.00    -0.287 OA
ATOM     16  C   UNL     1      48.811  83.281  39.639  0.00  0.00    +0.038 C 
ATOM     17  C   UNL     1      47.652  83.023  40.190  0.00  0.00    -0.017 C 
ATOM     18  C   UNL     1      47.487  81.937  41.153  0.00  0.00    +0.066 C 
ATOM     19  C   UNL     1      47.106  82.619  42.482  0.00  0.00    +0.011 C 
ATOM     20  F   UNL     1      49.764  79.290  42.381  0.00  0.00    -0.233 F 
ATOM     21  F   UNL     1      45.203  81.895  40.869  0.00  0.00    -0.237 F 
ATOM     22  O   UNL     1      46.378  81.659  38.531  0.00  0.00    -0.220 OA
ATOM     23  C   UNL     1      45.830  77.498  39.376  0.00  0.00    +0.004 C 
ENDROOT
BRANCH   1  24
ATOM     24  C   UNL     1      43.498  76.726  40.635  0.00  0.00    +0.230 C 
ATOM     25  O   UNL     1      44.476  76.311  41.240  0.00  0.00    -0.288 OA
BRANCH  24  26
ATOM     26  C   UNL     1      42.303  75.828  40.671  0.00  0.00    +0.276 C 
BRANCH  26  27
ATOM     27  O   UNL     1      42.503  74.695  39.849  0.00  0.00    -0.440 OA
BRANCH  27  28
ATOM     28  C   UNL     1      41.462  73.849  39.500  0.00  0.00    +0.318 C 
ATOM     29  O   UNL     1      40.507  73.744  40.313  0.00  0.00    -0.250 OA
ATOM     30  C   UNL     1      41.470  73.087  38.206  0.00  0.00    +0.121 C 
ENDBRANCH  27  28
ENDBRANCH  26  27
ENDBRANCH  24  26
ENDBRANCH   1  24
BRANCH   1  31
ATOM     31  O   UNL     1      43.129  77.941  38.570  0.00  0.00    -0.448 OA
BRANCH  31  32
ATOM     32  C   UNL     1      41.822  78.136  38.242  0.00  0.00    +0.317 C 
ATOM     33  O   UNL     1      40.913  78.004  39.086  0.00  0.00    -0.250 OA
BRANCH  32  34
ATOM     34  C   UNL     1      41.474  78.519  36.829  0.00  0.00    +0.110 C 
BRANCH  34  36
ATOM     35  C   UNL     1      39.378  77.208  36.464  0.00  0.00    +0.001 C 
ATOM     36  C   UNL     1      40.841  77.323  36.142  0.00  0.00    +0.012 C 
ENDBRANCH  34  36
ENDBRANCH  32  34
ENDBRANCH  31  32
ENDBRANCH   1  31
TORSDOF 8
