REMARK  Name = Diflunisal
REMARK  2 active torsions:
REMARK  status: ('A' for Active; 'I' for Inactive)
REMARK    1  A    between atoms: C_4  and  C_15
REMARK    2  A    between atoms: C_6  and  C_7
REMARK                            x       y       z     vdW  Elec       q    Type
REMARK                         _______ _______ _______ _____ _____    ______ ____
ROOT
ATOM      1  C   UNL     1      47.519  83.082  39.646  0.00  0.00    +0.003 A 
ATOM      2  C   UNL     1      46.665  82.747  38.640  0.00  0.00    +0.042 A 
ATOM      3  C   UNL     1      45.889  81.590  38.782  0.00  0.00    +0.202 A 
ATOM      4  C   UNL     1      45.992  80.816  39.914  0.00  0.00    +0.119 A 
ATOM      5  C   UNL     1      46.861  81.178  40.912  0.00  0.00    +0.010 A 
ATOM      6  C   UNL     1      47.633  82.319  40.783  0.00  0.00    +0.003 A 
ATOM      7  O   UNL     1      44.996  81.179  37.804  0.00  0.00    -0.286 OA
ENDROOT
BRANCH   6   8
ATOM      8  C   UNL     1      48.527  82.649  41.864  0.00  0.00    +0.028 A 
ATOM      9  C   UNL     1      48.280  83.668  42.749  0.00  0.00    +0.142 A 
ATOM     10  C   UNL     1      49.138  83.984  43.785  0.00  0.00    +0.059 A 
ATOM     11  C   UNL     1      50.280  83.220  43.902  0.00  0.00    +0.142 A 
ATOM     12  C   UNL     1      50.559  82.188  43.030  0.00  0.00    +0.030 A 
ATOM     13  C   UNL     1      49.678  81.908  42.013  0.00  0.00    +0.005 A 
ATOM     14  F   UNL     1      51.165  83.494  44.916  0.00  0.00    -0.204 F 
ATOM     15  F   UNL     1      47.158  84.416  42.631  0.00  0.00    -0.204 F 
ENDBRANCH   6   8
BRANCH   4  16
ATOM     16  C   UNL     1      45.195  79.619  40.071  0.00  0.00    +0.391 C 
ATOM     17  O   UNL     1      44.252  79.394  39.276  0.00  0.00    -0.240 OA
ATOM     18  O   UNL     1      45.415  78.682  41.070  0.00  0.00    -0.240 OA
ENDBRANCH   4  16
TORSDOF 2
