REMARK  Name = Digitoxin
REMARK  7 active torsions:
REMARK  status: ('A' for Active; 'I' for Inactive)
REMARK    1  A    between atoms: C_6  and  O_8
REMARK    2  A    between atoms: O_8  and  C_9
REMARK    3  A    between atoms: C_12  and  O_16
REMARK    4  A    between atoms: O_16  and  C_17
REMARK    5  A    between atoms: C_20  and  O_24
REMARK    6  A    between atoms: O_24  and  C_25
REMARK    7  A    between atoms: C_41  and  C_42
REMARK                            x       y       z     vdW  Elec       q    Type
REMARK                         _______ _______ _______ _____ _____    ______ ____
ROOT
ATOM      1  C   UNL     1      39.909  76.421  38.011  0.00  0.00    +0.175 C 
ATOM      2  C   UNL     1      41.047  76.380  38.952  0.00  0.00    +0.147 C 
ATOM      3  O   UNL     1      42.290  76.698  38.452  0.00  0.00    -0.330 OA
ATOM      4  C   UNL     1      42.195  78.044  38.030  0.00  0.00    +0.238 C 
ATOM      5  C   UNL     1      41.439  77.997  36.745  0.00  0.00    +0.097 C 
ATOM      6  C   UNL     1      40.047  77.550  37.033  0.00  0.00    +0.186 C 
ATOM      7  O   UNL     1      39.248  78.646  37.378  0.00  0.00    -0.220 OA
ATOM      8  C   UNL     1      41.181  75.058  39.682  0.00  0.00    +0.035 C 
ENDROOT
BRANCH   1   9
ATOM      9  O   UNL     1      39.711  75.245  37.301  0.00  0.00    -0.328 OA
BRANCH   9  13
ATOM     10  C   UNL     1      37.970  73.124  34.930  0.00  0.00    +0.175 C 
ATOM     11  C   UNL     1      38.722  72.804  36.209  0.00  0.00    +0.147 C 
ATOM     12  O   UNL     1      38.267  73.523  37.283  0.00  0.00    -0.330 OA
ATOM     13  C   UNL     1      38.384  74.905  37.158  0.00  0.00    +0.238 C 
ATOM     14  C   UNL     1      37.723  75.333  35.902  0.00  0.00    +0.097 C 
ATOM     15  C   UNL     1      38.208  74.599  34.671  0.00  0.00    +0.186 C 
ATOM     16  O   UNL     1      37.450  75.037  33.580  0.00  0.00    -0.220 OA
ATOM     17  C   UNL     1      38.559  71.330  36.565  0.00  0.00    +0.035 C 
BRANCH  10  18
ATOM     18  O   UNL     1      36.612  72.839  35.055  0.00  0.00    -0.328 OA
BRANCH  18  24
ATOM     19  C   UNL     1      37.511  71.490  31.115  0.00  0.00    +0.035 C 
ATOM     20  C   UNL     1      36.627  72.040  32.239  0.00  0.00    +0.151 C 
ATOM     21  C   UNL     1      35.214  71.931  31.773  0.00  0.00    +0.209 C 
ATOM     22  C   UNL     1      34.423  71.172  32.821  0.00  0.00    +0.190 C 
ATOM     23  C   UNL     1      34.745  71.748  34.181  0.00  0.00    +0.097 C 
ATOM     24  C   UNL     1      36.225  71.649  34.491  0.00  0.00    +0.238 C 
ATOM     25  O   UNL     1      36.916  71.283  33.364  0.00  0.00    -0.330 OA
ATOM     26  O   UNL     1      33.074  71.413  32.568  0.00  0.00    -0.220 OA
ATOM     27  O   UNL     1      34.681  73.207  31.596  0.00  0.00    -0.218 OA
ENDBRANCH  18  24
ENDBRANCH  10  18
ENDBRANCH   9  13
ENDBRANCH   1   9
BRANCH   4  28
ATOM     28  O   UNL     1      43.395  78.699  38.006  0.00  0.00    -0.333 OA
BRANCH  28  29
ATOM     29  C   UNL     1      43.814  79.028  39.272  0.00  0.00    +0.118 C 
ATOM     30  C   UNL     1      45.050  78.235  39.720  0.00  0.00    +0.030 C 
ATOM     31  C   UNL     1      45.125  78.403  41.202  0.00  0.00    +0.002 C 
ATOM     32  C   UNL     1      45.119  79.799  41.715  0.00  0.00    +0.000 C 
ATOM     33  C   UNL     1      44.224  80.720  40.938  0.00  0.00    +0.002 C 
ATOM     34  C   UNL     1      44.216  80.477  39.446  0.00  0.00    +0.030 C 
ATOM     35  C   UNL     1      44.432  82.166  41.204  0.00  0.00    +0.000 C 
ATOM     36  C   UNL     1      45.926  82.546  41.223  0.00  0.00    +0.002 C 
ATOM     37  C   UNL     1      46.511  81.789  42.340  0.00  0.00    +0.028 C 
ATOM     38  C   UNL     1      46.491  80.297  41.965  0.00  0.00    +0.002 C 
ATOM     39  C   UNL     1      47.515  79.993  40.931  0.00  0.00    +0.000 C 
ATOM     40  C   UNL     1      48.903  80.394  41.370  0.00  0.00    +0.003 C 
ATOM     41  C   UNL     1      48.997  81.790  41.854  0.00  0.00    +0.029 C 
ATOM     42  C   UNL     1      47.857  82.049  42.805  0.00  0.00    +0.127 C 
ATOM     43  C   UNL     1      48.215  83.411  43.321  0.00  0.00    +0.031 C 
ATOM     44  C   UNL     1      49.647  83.062  43.790  0.00  0.00    +0.007 C 
ATOM     45  C   UNL     1      50.163  82.092  42.764  0.00  0.00    +0.024 C 
ATOM     46  O   UNL     1      48.069  81.187  43.915  0.00  0.00    -0.226 OA
ATOM     47  C   UNL     1      49.058  82.739  40.710  0.00  0.00    +0.003 C 
ATOM     48  C   UNL     1      44.467  79.722  43.119  0.00  0.00    +0.000 C 
BRANCH  45  49
ATOM     49  C   UNL     1      51.342  82.673  42.078  0.00  0.00    +0.005 C 
ATOM     50  C   UNL     1      52.282  83.499  42.489  0.00  0.00    +0.077 C 
ATOM     51  C   UNL     1      53.244  83.785  41.441  0.00  0.00    +0.341 C 
ATOM     52  O   UNL     1      54.254  84.533  41.515  0.00  0.00    -0.245 OA
ATOM     53  O   UNL     1      52.839  83.074  40.334  0.00  0.00    -0.441 OA
ATOM     54  C   UNL     1      51.667  82.347  40.632  0.00  0.00    +0.231 C 
ENDBRANCH  45  49
ENDBRANCH  28  29
ENDBRANCH   4  28
TORSDOF 7
