REMARK  Name = Digitalin
REMARK  7 active torsions:
REMARK  status: ('A' for Active; 'I' for Inactive)
REMARK    1  A    between atoms: C_3  and  O_39
REMARK    2  A    between atoms: C_4  and  O_37
REMARK    3  A    between atoms: C_6  and  O_8
REMARK    4  A    between atoms: O_8  and  C_9
REMARK    5  A    between atoms: C_25  and  C_26
REMARK    6  A    between atoms: O_39  and  C_40
REMARK    7  A    between atoms: C_44  and  C_46
REMARK                            x       y       z     vdW  Elec       q    Type
REMARK                         _______ _______ _______ _____ _____    ______ ____
ROOT
ATOM      1  C   UNL     1      43.491  78.014  38.709  0.00  0.00    +0.118 C 
ATOM      2  C   UNL     1      43.228  79.461  38.924  0.00  0.00    +0.030 C 
ATOM      3  C   UNL     1      44.094  80.166  39.904  0.00  0.00    +0.002 C 
ATOM      4  C   UNL     1      45.547  79.747  39.763  0.00  0.00    +0.000 C 
ATOM      5  C   UNL     1      45.576  78.246  40.042  0.00  0.00    +0.002 C 
ATOM      6  C   UNL     1      44.909  77.584  38.871  0.00  0.00    +0.030 C 
ATOM      7  C   UNL     1      46.981  77.709  40.167  0.00  0.00    +0.000 C 
ATOM      8  C   UNL     1      47.851  78.522  41.065  0.00  0.00    +0.002 C 
ATOM      9  C   UNL     1      47.763  80.000  40.745  0.00  0.00    +0.028 C 
ATOM     10  C   UNL     1      46.338  80.424  40.852  0.00  0.00    +0.002 C 
ATOM     11  C   UNL     1      46.132  81.906  40.747  0.00  0.00    +0.000 C 
ATOM     12  C   UNL     1      47.118  82.725  41.550  0.00  0.00    +0.003 C 
ATOM     13  C   UNL     1      48.505  82.241  41.325  0.00  0.00    +0.032 C 
ATOM     14  C   UNL     1      48.561  80.789  41.748  0.00  0.00    +0.129 C 
ATOM     15  C   UNL     1      50.038  80.510  41.693  0.00  0.00    +0.064 C 
ATOM     16  C   UNL     1      50.616  81.740  42.350  0.00  0.00    +0.158 C 
ATOM     17  C   UNL     1      49.596  82.877  42.086  0.00  0.00    +0.055 C 
ATOM     18  O   UNL     1      51.880  82.061  41.931  0.00  0.00    -0.223 OA
ATOM     19  O   UNL     1      48.127  80.637  43.034  0.00  0.00    -0.226 OA
ATOM     20  C   UNL     1      48.841  82.362  39.828  0.00  0.00    +0.003 C 
ATOM     21  C   UNL     1      46.058  79.978  38.382  0.00  0.00    +0.000 C 
ENDROOT
BRANCH  17  22
ATOM     22  C   UNL     1      49.307  83.599  43.318  0.00  0.00    +0.008 C 
ATOM     23  C   UNL     1      50.212  84.458  43.836  0.00  0.00    +0.077 C 
ATOM     24  C   UNL     1      49.717  85.056  45.056  0.00  0.00    +0.341 C 
ATOM     25  O   UNL     1      50.331  85.914  45.791  0.00  0.00    -0.245 OA
ATOM     26  O   UNL     1      48.469  84.529  45.269  0.00  0.00    -0.441 OA
ATOM     27  C   UNL     1      48.191  83.596  44.251  0.00  0.00    +0.231 C 
ENDBRANCH  17  22
BRANCH   1  28
ATOM     28  O   UNL     1      42.608  77.198  39.436  0.00  0.00    -0.331 OA
BRANCH  28  34
ATOM     29  C   UNL     1      39.550  78.017  36.821  0.00  0.00    +0.035 C 
ATOM     30  C   UNL     1      40.184  77.160  37.870  0.00  0.00    +0.148 C 
ATOM     31  C   UNL     1      39.281  76.008  38.299  0.00  0.00    +0.174 C 
ATOM     32  C   UNL     1      39.869  75.573  39.650  0.00  0.00    +0.180 C 
ATOM     33  C   UNL     1      41.328  75.222  39.513  0.00  0.00    +0.237 C 
ATOM     34  C   UNL     1      42.079  76.190  38.643  0.00  0.00    +0.269 C 
ATOM     35  O   UNL     1      41.410  76.652  37.543  0.00  0.00    -0.328 OA
ATOM     36  O   UNL     1      41.367  73.970  38.853  0.00  0.00    -0.215 OA
BRANCH  32  37
ATOM     37  O   UNL     1      39.651  76.504  40.630  0.00  0.00    -0.348 OA
ATOM     38  C   UNL     1      39.140  75.968  41.804  0.00  0.00    +0.174 C 
ENDBRANCH  32  37
BRANCH  31  39
ATOM     39  O   UNL     1      39.353  74.933  37.482  0.00  0.00    -0.326 OA
BRANCH  39  40
ATOM     40  C   UNL     1      38.248  74.391  36.932  0.00  0.00    +0.270 C 
ATOM     41  C   UNL     1      37.858  73.035  37.475  0.00  0.00    +0.241 C 
ATOM     42  C   UNL     1      37.313  72.150  36.340  0.00  0.00    +0.220 C 
ATOM     43  C   UNL     1      36.537  72.980  35.347  0.00  0.00    +0.214 C 
ATOM     44  C   UNL     1      37.369  74.137  34.829  0.00  0.00    +0.183 C 
ATOM     45  O   UNL     1      38.542  74.165  35.579  0.00  0.00    -0.326 OA
ATOM     46  O   UNL     1      36.174  72.143  34.296  0.00  0.00    -0.218 OA
ATOM     47  O   UNL     1      38.438  71.670  35.676  0.00  0.00    -0.217 OA
ATOM     48  O   UNL     1      38.935  72.328  37.995  0.00  0.00    -0.215 OA
BRANCH  44  49
ATOM     49  C   UNL     1      37.722  73.846  33.374  0.00  0.00    +0.214 C 
ATOM     50  O   UNL     1      37.777  74.981  32.603  0.00  0.00    -0.218 OA
ENDBRANCH  44  49
ENDBRANCH  39  40
ENDBRANCH  31  39
ENDBRANCH  28  34
ENDBRANCH   1  28
TORSDOF 7
