REMARK  Name = Digoxin
REMARK  7 active torsions:
REMARK  status: ('A' for Active; 'I' for Inactive)
REMARK    1  A    between atoms: C_6  and  O_8
REMARK    2  A    between atoms: O_8  and  C_9
REMARK    3  A    between atoms: C_12  and  O_16
REMARK    4  A    between atoms: O_16  and  C_17
REMARK    5  A    between atoms: C_20  and  O_24
REMARK    6  A    between atoms: O_24  and  C_25
REMARK    7  A    between atoms: C_41  and  C_42
REMARK                            x       y       z     vdW  Elec       q    Type
REMARK                         _______ _______ _______ _____ _____    ______ ____
ROOT
ATOM      1  O   UNL     1      42.600  77.646  39.981  0.00  0.00    -0.333 OA
ENDROOT
BRANCH   1   2
ATOM      2  C   UNL     1      43.568  77.855  38.965  0.00  0.00    +0.118 C 
ATOM      3  C   UNL     1      44.732  77.007  39.346  0.00  0.00    +0.030 C 
ATOM      4  C   UNL     1      45.684  77.608  40.320  0.00  0.00    +0.002 C 
ATOM      5  C   UNL     1      46.047  79.049  39.922  0.00  0.00    +0.000 C 
ATOM      6  C   UNL     1      44.760  79.799  39.892  0.00  0.00    +0.002 C 
ATOM      7  C   UNL     1      43.802  79.312  38.835  0.00  0.00    +0.030 C 
ATOM      8  C   UNL     1      44.923  81.291  39.707  0.00  0.00    +0.000 C 
ATOM      9  C   UNL     1      46.230  81.834  40.243  0.00  0.00    +0.002 C 
ATOM     10  C   UNL     1      46.634  80.990  41.401  0.00  0.00    +0.028 C 
ATOM     11  C   UNL     1      46.967  79.575  40.975  0.00  0.00    +0.005 C 
ATOM     12  C   UNL     1      48.413  79.394  40.591  0.00  0.00    +0.033 C 
ATOM     13  C   UNL     1      49.390  79.974  41.535  0.00  0.00    +0.154 C 
ATOM     14  C   UNL     1      49.096  81.454  41.808  0.00  0.00    +0.057 C 
ATOM     15  C   UNL     1      47.671  81.443  42.300  0.00  0.00    +0.129 C 
ATOM     16  C   UNL     1      47.569  82.756  42.989  0.00  0.00    +0.031 C 
ATOM     17  C   UNL     1      48.752  82.533  43.961  0.00  0.00    +0.007 C 
ATOM     18  C   UNL     1      49.817  81.946  43.005  0.00  0.00    +0.027 C 
ATOM     19  O   UNL     1      47.705  80.494  43.370  0.00  0.00    -0.226 OA
ATOM     20  C   UNL     1      49.351  82.177  40.543  0.00  0.00    +0.005 C 
ATOM     21  O   UNL     1      50.657  79.911  40.976  0.00  0.00    -0.223 OA
ATOM     22  C   UNL     1      46.660  78.940  38.560  0.00  0.00    +0.000 C 
BRANCH  18  23
ATOM     23  C   UNL     1      50.775  83.071  42.803  0.00  0.00    +0.005 C 
ATOM     24  C   UNL     1      52.064  82.845  42.561  0.00  0.00    +0.077 C 
ATOM     25  C   UNL     1      52.757  84.109  42.407  0.00  0.00    +0.341 C 
ATOM     26  O   UNL     1      54.012  84.259  42.165  0.00  0.00    -0.245 OA
ATOM     27  O   UNL     1      51.823  85.087  42.568  0.00  0.00    -0.441 OA
ATOM     28  C   UNL     1      50.598  84.511  42.884  0.00  0.00    +0.231 C 
ENDBRANCH  18  23
ENDBRANCH   1   2
BRANCH   1  32
ATOM     29  C   UNL     1      39.224  76.296  38.226  0.00  0.00    +0.175 C 
ATOM     30  C   UNL     1      39.974  77.500  37.709  0.00  0.00    +0.147 C 
ATOM     31  O   UNL     1      41.292  77.513  38.174  0.00  0.00    -0.330 OA
ATOM     32  C   UNL     1      41.331  77.885  39.527  0.00  0.00    +0.238 C 
ATOM     33  C   UNL     1      40.353  77.049  40.309  0.00  0.00    +0.097 C 
ATOM     34  C   UNL     1      39.907  75.854  39.490  0.00  0.00    +0.186 C 
ATOM     35  O   UNL     1      40.959  74.995  39.306  0.00  0.00    -0.220 OA
ATOM     36  C   UNL     1      40.009  77.557  36.208  0.00  0.00    +0.035 C 
BRANCH  29  37
ATOM     37  O   UNL     1      39.236  75.351  37.212  0.00  0.00    -0.328 OA
BRANCH  37  41
ATOM     38  C   UNL     1      37.283  73.006  35.329  0.00  0.00    +0.175 C 
ATOM     39  C   UNL     1      37.640  74.196  34.461  0.00  0.00    +0.147 C 
ATOM     40  O   UNL     1      38.569  75.019  35.019  0.00  0.00    -0.330 OA
ATOM     41  C   UNL     1      38.243  75.517  36.267  0.00  0.00    +0.238 C 
ATOM     42  C   UNL     1      36.962  74.993  36.812  0.00  0.00    +0.097 C 
ATOM     43  C   UNL     1      36.840  73.489  36.683  0.00  0.00    +0.186 C 
ATOM     44  O   UNL     1      37.518  72.838  37.723  0.00  0.00    -0.220 OA
ATOM     45  C   UNL     1      36.394  74.849  33.952  0.00  0.00    +0.035 C 
BRANCH  38  46
ATOM     46  O   UNL     1      36.248  72.313  34.751  0.00  0.00    -0.328 OA
BRANCH  46  52
ATOM     47  C   UNL     1      39.758  71.319  32.131  0.00  0.00    +0.035 C 
ATOM     48  C   UNL     1      38.340  71.849  32.008  0.00  0.00    +0.151 C 
ATOM     49  C   UNL     1      37.520  70.798  31.286  0.00  0.00    +0.209 C 
ATOM     50  C   UNL     1      36.056  71.187  31.236  0.00  0.00    +0.190 C 
ATOM     51  C   UNL     1      35.705  72.116  32.388  0.00  0.00    +0.097 C 
ATOM     52  C   UNL     1      36.581  71.734  33.533  0.00  0.00    +0.238 C 
ATOM     53  O   UNL     1      37.876  72.167  33.255  0.00  0.00    -0.330 OA
ATOM     54  O   UNL     1      35.747  71.713  30.002  0.00  0.00    -0.220 OA
ATOM     55  O   UNL     1      37.988  70.722  29.978  0.00  0.00    -0.218 OA
ENDBRANCH  46  52
ENDBRANCH  38  46
ENDBRANCH  37  41
ENDBRANCH  29  37
ENDBRANCH   1  32
TORSDOF 7
