REMARK  Name = Dihydrotachysterol
REMARK  5 active torsions:
REMARK  status: ('A' for Active; 'I' for Inactive)
REMARK    1  A    between atoms: C_8  and  C_9
REMARK    2  A    between atoms: C_18  and  C_19
REMARK    3  A    between atoms: C_19  and  C_21
REMARK    4  A    between atoms: C_22  and  C_23
REMARK    5  A    between atoms: C_23  and  C_25
REMARK                            x       y       z     vdW  Elec       q    Type
REMARK                         _______ _______ _______ _____ _____    ______ ____
ROOT
ATOM      1  C   UNL     1      43.060  78.388  40.143  0.00  0.00    -0.009 C 
ATOM      2  C   UNL     1      44.278  78.562  40.586  0.00  0.00    -0.045 C 
ATOM      3  C   UNL     1      44.568  78.496  42.025  0.00  0.00    +0.022 C 
ATOM      4  C   UNL     1      46.092  78.287  42.137  0.00  0.00    +0.004 C 
ATOM      5  C   UNL     1      46.684  79.577  41.620  0.00  0.00    +0.001 C 
ATOM      6  C   UNL     1      46.472  79.700  40.127  0.00  0.00    +0.004 C 
ATOM      7  C   UNL     1      45.356  78.829  39.606  0.00  0.00    +0.018 C 
ATOM      8  C   UNL     1      44.859  79.571  38.371  0.00  0.00    +0.004 C 
ATOM      9  C   UNL     1      45.735  80.821  38.240  0.00  0.00    +0.001 C 
ATOM     10  C   UNL     1      46.024  81.036  39.708  0.00  0.00    +0.004 C 
ATOM     11  C   UNL     1      47.716  79.195  39.425  0.00  0.00    +0.000 C 
ENDROOT
BRANCH   1  19
ATOM     12  C   UNL     1      41.740  76.615  36.949  0.00  0.00    +0.004 C 
ATOM     13  C   UNL     1      41.038  77.386  38.024  0.00  0.00    +0.018 C 
ATOM     14  C   UNL     1      39.535  77.354  37.845  0.00  0.00    +0.007 C 
ATOM     15  C   UNL     1      38.963  75.982  37.974  0.00  0.00    +0.034 C 
ATOM     16  C   UNL     1      39.525  75.182  39.108  0.00  0.00    +0.156 C 
ATOM     17  C   UNL     1      40.345  76.028  40.063  0.00  0.00    +0.055 C 
ATOM     18  C   UNL     1      41.364  76.826  39.347  0.00  0.00    -0.042 C 
ATOM     19  C   UNL     1      42.573  77.054  39.858  0.00  0.00    -0.009 C 
ATOM     20  O   UNL     1      40.343  74.128  38.648  0.00  0.00    -0.223 OA
ENDBRANCH   1  19
BRANCH  10  21
ATOM     21  C   UNL     1      46.775  82.230  40.060  0.00  0.00    +0.022 C 
ATOM     22  C   UNL     1      46.219  83.556  39.725  0.00  0.00    +0.005 C 
BRANCH  21  23
ATOM     23  C   UNL     1      47.112  82.183  41.511  0.00  0.00    -0.031 C 
ATOM     24  C   UNL     1      48.245  82.599  42.040  0.00  0.00    -0.031 C 
BRANCH  24  25
ATOM     25  C   UNL     1      48.405  83.300  43.329  0.00  0.00    +0.022 C 
ATOM     26  C   UNL     1      47.640  84.612  43.357  0.00  0.00    +0.005 C 
BRANCH  25  27
ATOM     27  C   UNL     1      49.803  83.438  43.819  0.00  0.00    +0.004 C 
ATOM     28  C   UNL     1      50.489  82.181  44.223  0.00  0.00    +0.000 C 
ATOM     29  C   UNL     1      50.634  84.088  42.701  0.00  0.00    +0.000 C 
ENDBRANCH  25  27
ENDBRANCH  24  25
ENDBRANCH  21  23
ENDBRANCH  10  21
TORSDOF 5
