REMARK  Name = Dihydroergotamine
REMARK  4 active torsions:
REMARK  status: ('A' for Active; 'I' for Inactive)
REMARK    1  A    between atoms: C_2  and  N_24
REMARK    2  A    between atoms: C_6  and  C_17
REMARK    3  A    between atoms: C_17  and  C_18
REMARK    4  A    between atoms: C_25  and  C_27
REMARK                            x       y       z     vdW  Elec       q    Type
REMARK                         _______ _______ _______ _____ _____    ______ ____
ROOT
ATOM      1  C   UNL     1      43.038  79.636  40.082  0.00  0.00    +0.063 C 
ATOM      2  C   UNL     1      44.107  78.621  39.740  0.00  0.00    +0.243 C 
ATOM      3  C   UNL     1      44.641  77.925  40.927  0.00  0.00    +0.274 C 
ATOM      4  O   UNL     1      45.681  78.116  41.592  0.00  0.00    -0.270 OA
ATOM      5  N   UNL     1      43.686  76.910  41.211  0.00  0.00    -0.225 N 
ATOM      6  C   UNL     1      43.377  76.097  42.373  0.00  0.00    +0.160 C 
ATOM      7  C   UNL     1      42.684  74.861  41.935  0.00  0.00    +0.244 C 
ATOM      8  O   UNL     1      42.047  74.159  42.761  0.00  0.00    -0.273 OA
ATOM      9  N   UNL     1      42.705  74.415  40.581  0.00  0.00    -0.273 N 
ATOM     10  C   UNL     1      42.680  73.125  39.915  0.00  0.00    +0.094 C 
ATOM     11  C   UNL     1      43.688  73.325  38.783  0.00  0.00    +0.023 C 
ATOM     12  C   UNL     1      43.952  74.836  38.727  0.00  0.00    +0.029 C 
ATOM     13  C   UNL     1      42.767  75.376  39.498  0.00  0.00    +0.149 C 
ATOM     14  C   UNL     1      42.928  76.763  40.002  0.00  0.00    +0.307 C 
ATOM     15  O   UNL     1      43.498  77.594  39.047  0.00  0.00    -0.294 OA
ATOM     16  O   UNL     1      41.651  77.274  40.257  0.00  0.00    -0.172 OA
ENDROOT
BRANCH   2  17
ATOM     17  N   UNL     1      45.142  79.185  38.905  0.00  0.00    -0.173 NA
ATOM     18  C   UNL     1      45.611  80.528  39.070  0.00  0.00    +0.245 C 
ATOM     19  O   UNL     1      44.900  81.427  38.563  0.00  0.00    -0.273 OA
BRANCH  18  20
ATOM     20  C   UNL     1      46.848  80.865  39.785  0.00  0.00    +0.095 C 
ATOM     21  C   UNL     1      46.751  82.091  40.626  0.00  0.00    +0.016 C 
ATOM     22  C   UNL     1      48.133  82.714  40.739  0.00  0.00    +0.038 C 
ATOM     23  C   UNL     1      49.173  81.631  40.702  0.00  0.00    +0.066 C 
ATOM     24  C   UNL     1      50.570  82.182  40.880  0.00  0.00    +0.044 C 
ATOM     25  C   UNL     1      50.636  82.883  42.176  0.00  0.00    -0.001 A 
ATOM     26  C   UNL     1      51.613  83.167  43.133  0.00  0.00    +0.095 A 
ATOM     27  N   UNL     1      51.021  83.878  44.125  0.00  0.00    -0.244 NA
ATOM     28  C   UNL     1      49.717  84.075  43.873  0.00  0.00    +0.081 A 
ATOM     29  C   UNL     1      48.650  84.707  44.502  0.00  0.00    +0.019 A 
ATOM     30  C   UNL     1      47.416  84.688  43.895  0.00  0.00    +0.001 A 
ATOM     31  C   UNL     1      47.197  84.054  42.666  0.00  0.00    -0.004 A 
ATOM     32  C   UNL     1      48.260  83.431  42.052  0.00  0.00    -0.020 A 
ATOM     33  C   UNL     1      49.491  83.454  42.662  0.00  0.00    +0.011 A 
ATOM     34  N   UNL     1      49.192  80.927  39.428  0.00  0.00    -0.272 NA
ATOM     35  C   UNL     1      47.941  81.103  38.763  0.00  0.00    +0.081 C 
ATOM     36  C   UNL     1      49.416  79.519  39.661  0.00  0.00    +0.090 C 
ENDBRANCH  18  20
ENDBRANCH   2  17
BRANCH   6  37
ATOM     37  C   UNL     1      44.691  75.677  43.004  0.00  0.00    +0.056 C 
BRANCH  37  38
ATOM     38  C   UNL     1      44.551  75.474  44.457  0.00  0.00    -0.020 A 
ATOM     39  C   UNL     1      44.735  76.586  45.272  0.00  0.00    -0.004 A 
ATOM     40  C   UNL     1      44.626  76.498  46.638  0.00  0.00    -0.000 A 
ATOM     41  C   UNL     1      44.328  75.286  47.212  0.00  0.00    -0.000 A 
ATOM     42  C   UNL     1      44.141  74.164  46.405  0.00  0.00    -0.000 A 
ATOM     43  C   UNL     1      44.254  74.272  45.041  0.00  0.00    -0.004 A 
ENDBRANCH  37  38
ENDBRANCH   6  37
TORSDOF 4
