REMARK  Name = Dihydroergocristine
REMARK  5 active torsions:
REMARK  status: ('A' for Active; 'I' for Inactive)
REMARK    1  A    between atoms: C_2  and  C_4
REMARK    2  A    between atoms: C_4  and  N_26
REMARK    3  A    between atoms: C_8  and  C_19
REMARK    4  A    between atoms: C_19  and  C_20
REMARK    5  A    between atoms: C_27  and  C_29
REMARK                            x       y       z     vdW  Elec       q    Type
REMARK                         _______ _______ _______ _____ _____    ______ ____
ROOT
ATOM      1  C   UNL     1      48.673  82.917  42.444  0.00  0.00    +0.243 C 
ATOM      2  C   UNL     1      49.892  82.920  41.618  0.00  0.00    +0.274 C 
ATOM      3  O   UNL     1      49.970  82.730  40.343  0.00  0.00    -0.270 OA
ATOM      4  N   UNL     1      50.973  83.172  42.486  0.00  0.00    -0.225 N 
ATOM      5  C   UNL     1      52.380  83.448  42.284  0.00  0.00    +0.160 C 
ATOM      6  C   UNL     1      53.103  82.470  43.119  0.00  0.00    +0.244 C 
ATOM      7  O   UNL     1      54.352  82.444  43.127  0.00  0.00    -0.273 OA
ATOM      8  N   UNL     1      52.385  81.559  43.913  0.00  0.00    -0.273 N 
ATOM      9  C   UNL     1      52.631  80.170  44.320  0.00  0.00    +0.094 C 
ATOM     10  C   UNL     1      51.366  79.675  44.941  0.00  0.00    +0.023 C 
ATOM     11  C   UNL     1      50.318  80.705  44.580  0.00  0.00    +0.029 C 
ATOM     12  C   UNL     1      51.133  81.959  44.524  0.00  0.00    +0.149 C 
ATOM     13  C   UNL     1      50.452  83.113  43.832  0.00  0.00    +0.307 C 
ATOM     14  O   UNL     1      49.120  82.880  43.744  0.00  0.00    -0.294 OA
ATOM     15  O   UNL     1      50.775  84.259  44.563  0.00  0.00    -0.172 OA
ENDROOT
BRANCH   1  17
ATOM     16  C   UNL     1      46.666  84.290  43.039  0.00  0.00    +0.005 C 
ATOM     17  C   UNL     1      47.959  84.267  42.250  0.00  0.00    +0.053 C 
ATOM     18  C   UNL     1      48.839  85.433  42.564  0.00  0.00    +0.005 C 
ENDBRANCH   1  17
BRANCH   1  19
ATOM     19  N   UNL     1      47.788  81.827  42.146  0.00  0.00    -0.173 NA
ATOM     20  C   UNL     1      47.024  81.735  40.986  0.00  0.00    +0.245 C 
ATOM     21  O   UNL     1      46.634  82.789  40.414  0.00  0.00    -0.273 OA
BRANCH  20  22
ATOM     22  C   UNL     1      46.627  80.441  40.362  0.00  0.00    +0.095 C 
ATOM     23  C   UNL     1      45.331  79.904  40.886  0.00  0.00    +0.016 C 
ATOM     24  C   UNL     1      44.989  78.667  40.047  0.00  0.00    +0.038 C 
ATOM     25  C   UNL     1      44.917  78.930  38.602  0.00  0.00    +0.066 C 
ATOM     26  C   UNL     1      43.675  78.655  37.863  0.00  0.00    +0.044 C 
ATOM     27  C   UNL     1      42.606  77.972  38.595  0.00  0.00    -0.001 A 
ATOM     28  C   UNL     1      41.377  77.514  38.215  0.00  0.00    +0.095 A 
ATOM     29  N   UNL     1      40.794  76.952  39.318  0.00  0.00    -0.244 NA
ATOM     30  C   UNL     1      41.612  77.039  40.379  0.00  0.00    +0.081 A 
ATOM     31  C   UNL     1      41.621  76.689  41.700  0.00  0.00    +0.019 A 
ATOM     32  C   UNL     1      42.720  76.974  42.504  0.00  0.00    +0.001 A 
ATOM     33  C   UNL     1      43.848  77.626  41.989  0.00  0.00    -0.004 A 
ATOM     34  C   UNL     1      43.839  77.979  40.658  0.00  0.00    -0.020 A 
ATOM     35  C   UNL     1      42.750  77.686  39.903  0.00  0.00    +0.011 A 
ATOM     36  N   UNL     1      45.327  80.313  38.289  0.00  0.00    -0.272 NA
ATOM     37  C   UNL     1      46.603  80.625  38.868  0.00  0.00    +0.081 C 
ATOM     38  C   UNL     1      44.301  81.274  38.491  0.00  0.00    +0.090 C 
ENDBRANCH  20  22
ENDBRANCH   1  19
BRANCH   5  39
ATOM     39  C   UNL     1      52.649  83.326  40.812  0.00  0.00    +0.056 C 
BRANCH  39  40
ATOM     40  C   UNL     1      53.872  84.031  40.357  0.00  0.00    -0.020 A 
ATOM     41  C   UNL     1      54.933  83.274  39.920  0.00  0.00    -0.004 A 
ATOM     42  C   UNL     1      56.104  83.857  39.487  0.00  0.00    -0.000 A 
ATOM     43  C   UNL     1      56.249  85.230  39.479  0.00  0.00    -0.000 A 
ATOM     44  C   UNL     1      55.165  85.963  39.924  0.00  0.00    -0.000 A 
ATOM     45  C   UNL     1      53.991  85.399  40.359  0.00  0.00    -0.004 A 
ENDBRANCH  39  40
ENDBRANCH   5  39
TORSDOF 5
