REMARK  Name = Dihydroxyaluminium
REMARK  2 active torsions:
REMARK  status: ('A' for Active; 'I' for Inactive)
REMARK    1  A    between atoms: C_1  and  C_2
REMARK    2  A    between atoms: C_2  and  O_4
REMARK                            x       y       z     vdW  Elec       q    Type
REMARK                         _______ _______ _______ _____ _____    ______ ____
ROOT
ATOM      1  C   UNL     1      45.309  80.511  39.572  0.00  0.00    +0.299 C 
ATOM      2  O   UNL     1      46.153  80.577  40.502  0.00  0.00    -0.252 OA
ENDROOT
BRANCH   1   3
ATOM      3  C   UNL     1      44.374  79.377  39.527  0.00  0.00    +0.215 C 
ATOM      4  N   UNL     1      43.471  79.449  38.400  0.00  0.00    -0.119 NA
ENDBRANCH   1   3
BRANCH   1   5
ATOM      5  O   UNL     1      45.340  81.546  38.648  0.00  0.00    -0.634 OA
ATOM      6 AL   UNL     1      46.546  82.956  38.756  0.00  0.00    +0.492 Al
ENDBRANCH   1   5
TORSDOF 2
REMARK  Name = Dihydroxyaluminium
REMARK  2 active torsions:
REMARK  status: ('A' for Active; 'I' for Inactive)
REMARK    1  A    between atoms: C_1  and  C_2
REMARK    2  A    between atoms: C_2  and  O_4
REMARK                            x       y       z     vdW  Elec       q    Type
REMARK                         _______ _______ _______ _____ _____    ______ ____
ROOT
ATOM      1  O   HOH     1      44.579  80.140  38.800  0.00  0.00    +0.000 OA
ENDROOT
TORSDOF 0
REMARK  Name = Dihydroxyaluminium
REMARK  2 active torsions:
REMARK  status: ('A' for Active; 'I' for Inactive)
REMARK    1  A    between atoms: C_1  and  C_2
REMARK    2  A    between atoms: C_2  and  O_4
REMARK                            x       y       z     vdW  Elec       q    Type
REMARK                         _______ _______ _______ _____ _____    ______ ____
ROOT
ATOM      1  O   HOH     1      44.581  80.142  38.803  0.00  0.00    +0.000 OA
ENDROOT
TORSDOF 0
