REMARK  Name = Diltiazem
REMARK  7 active torsions:
REMARK  status: ('A' for Active; 'I' for Inactive)
REMARK    1  A    between atoms: C_2  and  O_4
REMARK    2  A    between atoms: O_4  and  C_5
REMARK    3  A    between atoms: C_6  and  C_22
REMARK    4  A    between atoms: N_14  and  C_17
REMARK    5  A    between atoms: C_17  and  C_18
REMARK    6  A    between atoms: C_18  and  N_19
REMARK    7  A    between atoms: C_25  and  O_28
REMARK                            x       y       z     vdW  Elec       q    Type
REMARK                         _______ _______ _______ _____ _____    ______ ____
ROOT
ATOM      1  C   UNL     1      46.593  80.086  39.878  0.00  0.00    +0.259 C 
ATOM      2  C   UNL     1      46.406  80.466  41.320  0.00  0.00    +0.123 C 
ATOM      3  S   UNL     1      46.428  78.921  42.298  0.00  0.00    -0.105 S 
ATOM      4  C   UNL     1      45.061  77.901  41.796  0.00  0.00    +0.039 A 
ATOM      5  C   UNL     1      44.905  76.814  42.595  0.00  0.00    +0.007 A 
ATOM      6  C   UNL     1      43.918  75.874  42.415  0.00  0.00    +0.001 A 
ATOM      7  C   UNL     1      43.035  76.029  41.377  0.00  0.00    +0.001 A 
ATOM      8  C   UNL     1      43.186  77.148  40.544  0.00  0.00    +0.015 A 
ATOM      9  C   UNL     1      44.179  78.083  40.734  0.00  0.00    +0.060 A 
ATOM     10  N   UNL     1      44.110  79.113  39.768  0.00  0.00    -0.254 N 
ATOM     11  C   UNL     1      45.262  79.843  39.288  0.00  0.00    +0.271 C 
ATOM     12  O   UNL     1      45.062  80.363  38.140  0.00  0.00    -0.271 OA
ENDROOT
BRANCH   2  13
ATOM     13  C   UNL     1      47.352  81.444  41.829  0.00  0.00    -0.008 A 
ATOM     14  C   UNL     1      47.001  82.307  42.843  0.00  0.00    -0.000 A 
ATOM     15  C   UNL     1      47.922  83.248  43.323  0.00  0.00    +0.037 A 
ATOM     16  C   UNL     1      49.182  83.330  42.797  0.00  0.00    +0.139 A 
ATOM     17  C   UNL     1      49.536  82.469  41.783  0.00  0.00    +0.037 A 
ATOM     18  C   UNL     1      48.627  81.546  41.315  0.00  0.00    -0.000 A 
BRANCH  16  19
ATOM     19  O   UNL     1      50.109  84.279  43.282  0.00  0.00    -0.471 OA
ATOM     20  C   UNL     1      51.422  83.851  43.602  0.00  0.00    +0.252 C 
ENDBRANCH  16  19
ENDBRANCH   2  13
BRANCH   1  21
ATOM     21  O   UNL     1      47.249  81.099  39.136  0.00  0.00    -0.441 OA
BRANCH  21  23
ATOM     22  C   UNL     1      45.849  82.978  40.110  0.00  0.00    +0.121 C 
ATOM     23  C   UNL     1      46.766  82.390  39.134  0.00  0.00    +0.318 C 
ATOM     24  O   UNL     1      47.161  83.145  38.182  0.00  0.00    -0.250 OA
ENDBRANCH  21  23
ENDBRANCH   1  21
BRANCH  10  25
ATOM     25  C   UNL     1      42.826  79.462  39.272  0.00  0.00    +0.116 C 
BRANCH  25  26
ATOM     26  C   UNL     1      41.871  78.286  39.193  0.00  0.00    +0.094 C 
BRANCH  26  27
ATOM     27  N   UNL     1      41.220  78.288  37.917  0.00  0.00    -0.269 NA
ATOM     28  C   UNL     1      41.914  77.621  36.868  0.00  0.00    +0.090 C 
ATOM     29  C   UNL     1      39.903  77.700  38.074  0.00  0.00    +0.090 C 
ENDBRANCH  26  27
ENDBRANCH  25  26
ENDBRANCH  10  25
TORSDOF 7
