REMARK  Name = Dimethindene
REMARK  5 active torsions:
REMARK  status: ('A' for Active; 'I' for Inactive)
REMARK    1  A    between atoms: C_2  and  C_3
REMARK    2  A    between atoms: C_2  and  C_9
REMARK    3  A    between atoms: C_10  and  C_18
REMARK    4  A    between atoms: C_18  and  C_19
REMARK    5  A    between atoms: C_19  and  N_20
REMARK                            x       y       z     vdW  Elec       q    Type
REMARK                         _______ _______ _______ _____ _____    ______ ____
ROOT
ATOM      1  C   UNL     1      45.023  78.528  39.885  0.00  0.00    -0.025 C 
ATOM      2  C   UNL     1      43.981  78.995  39.177  0.00  0.00    -0.042 C 
ATOM      3  C   UNL     1      44.093  80.450  38.952  0.00  0.00    +0.048 C 
ATOM      4  C   UNL     1      45.361  80.816  39.600  0.00  0.00    -0.018 A 
ATOM      5  C   UNL     1      45.975  82.056  39.693  0.00  0.00    -0.004 A 
ATOM      6  C   UNL     1      47.158  82.184  40.356  0.00  0.00    -0.000 A 
ATOM      7  C   UNL     1      47.735  81.077  40.929  0.00  0.00    -0.000 A 
ATOM      8  C   UNL     1      47.105  79.864  40.820  0.00  0.00    -0.001 A 
ATOM      9  C   UNL     1      45.889  79.683  40.148  0.00  0.00    -0.008 A 
ENDROOT
BRANCH   1  11
ATOM     10  C   UNL     1      46.773  76.730  40.182  0.00  0.00    +0.011 C 
ATOM     11  C   UNL     1      45.397  77.223  40.367  0.00  0.00    +0.062 C 
BRANCH  11  12
ATOM     12  C   UNL     1      45.075  77.026  41.806  0.00  0.00    +0.063 A 
ATOM     13  C   UNL     1      44.081  76.190  42.261  0.00  0.00    +0.015 A 
ATOM     14  C   UNL     1      43.801  76.030  43.601  0.00  0.00    +0.003 A 
ATOM     15  C   UNL     1      44.533  76.724  44.509  0.00  0.00    +0.021 A 
ATOM     16  C   UNL     1      45.532  77.567  44.073  0.00  0.00    +0.098 A 
ATOM     17  N   UNL     1      45.773  77.691  42.733  0.00  0.00    -0.248 NA
ENDBRANCH  11  12
ENDBRANCH   1  11
BRANCH   2  18
ATOM     18  C   UNL     1      42.847  78.197  38.776  0.00  0.00    +0.039 C 
BRANCH  18  19
ATOM     19  C   UNL     1      41.975  78.622  37.665  0.00  0.00    +0.077 C 
BRANCH  19  20
ATOM     20  N   UNL     1      40.878  77.802  37.265  0.00  0.00    -0.270 NA
ATOM     21  C   UNL     1      39.653  78.638  37.245  0.00  0.00    +0.090 C 
ATOM     22  C   UNL     1      40.587  76.800  38.328  0.00  0.00    +0.090 C 
ENDBRANCH  19  20
ENDBRANCH  18  19
ENDBRANCH   2  18
TORSDOF 5
