REMARK  Name = Dimenhydrinate
REMARK  6 active torsions:
REMARK  status: ('A' for Active; 'I' for Inactive)
REMARK    1  A    between atoms: N_16  and  C_18
REMARK    2  A    between atoms: C_18  and  C_19
REMARK    3  A    between atoms: C_19  and  O_20
REMARK    4  A    between atoms: O_20  and  C_21
REMARK    5  A    between atoms: C_21  and  C_22
REMARK    6  A    between atoms: C_21  and  C_28
REMARK                            x       y       z     vdW  Elec       q    Type
REMARK                         _______ _______ _______ _____ _____    ______ ____
ROOT
ATOM      1  C   UNL     1      47.375  79.242  42.278  0.00  0.00    +0.137 C 
ATOM      2  N   UNL     1      46.452  79.455  41.183  0.00  0.00    -0.263 N 
ATOM      3  C   UNL     1      46.579  80.542  40.401  0.00  0.00    +0.172 A 
ATOM      4  C   UNL     1      45.698  80.745  39.356  0.00  0.00    +0.174 A 
ATOM      5  C   UNL     1      44.697  79.801  39.151  0.00  0.00    +0.285 A 
ATOM      6  O   UNL     1      43.882  79.960  38.209  0.00  0.00    -0.265 OA
ATOM      7  N   UNL     1      44.596  78.730  39.944  0.00  0.00    -0.245 N 
ATOM      8  C   UNL     1      45.474  78.564  40.956  0.00  0.00    +0.335 A 
ATOM      9  O   UNL     1      45.352  77.541  41.690  0.00  0.00    -0.246 OA
ATOM     10  C   UNL     1      43.546  77.720  39.746  0.00  0.00    +0.138 C 
ATOM     11  N   UNL     1      46.048  81.889  38.749  0.00  0.00    -0.209 NA
ATOM     12  C   UNL     1      47.115  82.427  39.359  0.00  0.00    +0.225 A 
ATOM     13  N   UNL     1      47.427  81.594  40.365  0.00  0.00    -0.198 NA
ATOM     14 CL   UNL     1      47.946  83.929  38.929  0.00  0.00    -0.041 Cl
ENDROOT
TORSDOF 0
REMARK  Name = Dimenhydrinate
REMARK  6 active torsions:
REMARK  status: ('A' for Active; 'I' for Inactive)
REMARK    1  A    between atoms: N_16  and  C_18
REMARK    2  A    between atoms: C_18  and  C_19
REMARK    3  A    between atoms: C_19  and  O_20
REMARK    4  A    between atoms: O_20  and  C_21
REMARK    5  A    between atoms: C_21  and  C_22
REMARK    6  A    between atoms: C_21  and  C_28
REMARK                            x       y       z     vdW  Elec       q    Type
REMARK                         _______ _______ _______ _____ _____    ______ ____
ROOT
ATOM      1  C   UNL     1      45.432  79.468  40.310  0.00  0.00    +0.160 C 
ENDROOT
BRANCH   1   2
ATOM      2  C   UNL     1      45.460  78.216  41.067  0.00  0.00    +0.009 A 
ATOM      3  C   UNL     1      46.148  77.122  40.681  0.00  0.00    -0.002 A 
ATOM      4  C   UNL     1      46.148  75.931  41.425  0.00  0.00    -0.000 A 
ATOM      5  C   UNL     1      45.427  75.861  42.590  0.00  0.00    -0.000 A 
ATOM      6  C   UNL     1      44.716  76.986  42.993  0.00  0.00    -0.000 A 
ATOM      7  C   UNL     1      44.733  78.136  42.248  0.00  0.00    -0.002 A 
ENDBRANCH   1   2
BRANCH   1   8
ATOM      8  C   UNL     1      44.160  79.499  39.474  0.00  0.00    +0.009 A 
ATOM      9  C   UNL     1      42.943  79.514  40.104  0.00  0.00    -0.002 A 
ATOM     10  C   UNL     1      41.785  79.543  39.326  0.00  0.00    -0.000 A 
ATOM     11  C   UNL     1      41.845  79.557  37.941  0.00  0.00    -0.000 A 
ATOM     12  C   UNL     1      43.077  79.542  37.343  0.00  0.00    -0.000 A 
ATOM     13  C   UNL     1      44.250  79.513  38.102  0.00  0.00    -0.002 A 
ENDBRANCH   1   8
BRANCH   1  14
ATOM     14  O   UNL     1      45.465  80.623  41.054  0.00  0.00    -0.346 OA
BRANCH  14  15
ATOM     15  C   UNL     1      46.740  80.900  41.480  0.00  0.00    +0.160 C 
BRANCH  15  16
ATOM     16  C   UNL     1      47.154  82.293  41.176  0.00  0.00    +0.105 C 
BRANCH  16  18
ATOM     17  C   UNL     1      49.506  82.800  41.128  0.00  0.00    +0.090 C 
ATOM     18  N   UNL     1      48.351  82.639  41.966  0.00  0.00    -0.268 NA
ATOM     19  C   UNL     1      48.093  83.792  42.788  0.00  0.00    +0.090 C 
ENDBRANCH  16  18
ENDBRANCH  15  16
ENDBRANCH  14  15
ENDBRANCH   1  14
TORSDOF 6
