REMARK  Name = Dinoprost_Tromethamine
REMARK  15 active torsions:
REMARK  status: ('A' for Active; 'I' for Inactive)
REMARK    1  A    between atoms: C_2  and  C_3
REMARK    2  A    between atoms: C_3  and  C_4
REMARK    3  A    between atoms: C_4  and  C_5
REMARK    4  A    between atoms: C_5  and  C_6
REMARK    5  A    between atoms: C_6  and  C_7
REMARK    6  A    between atoms: C_8  and  C_9
REMARK    7  A    between atoms: C_13  and  C_14
REMARK    8  A    between atoms: C_14  and  C_15
REMARK    9  A    between atoms: C_16  and  C_17
REMARK   10  A    between atoms: C_17  and  C_18
REMARK   11  A    between atoms: C_18  and  C_19
REMARK   12  A    between atoms: C_19  and  C_20
REMARK   13  A    between atoms: C_26  and  C_27
REMARK   14  A    between atoms: C_27  and  C_28
REMARK   15  A    between atoms: C_27  and  C_30
REMARK                            x       y       z     vdW  Elec       q    Type
REMARK                         _______ _______ _______ _____ _____    ______ ____
ROOT
ATOM      1  C   UNL     1      46.594  81.446  40.586  0.00  0.00    +0.055 C 
ATOM      2  C   UNL     1      46.978  82.423  39.531  0.00  0.00    +0.159 C 
ATOM      3  C   UNL     1      47.405  81.570  38.370  0.00  0.00    +0.066 C 
ATOM      4  C   UNL     1      46.880  80.180  38.635  0.00  0.00    +0.155 C 
ATOM      5  C   UNL     1      45.952  80.320  39.789  0.00  0.00    +0.041 C 
ATOM      6  O   UNL     1      47.951  79.325  38.983  0.00  0.00    -0.223 OA
ATOM      7  O   UNL     1      45.914  83.260  39.164  0.00  0.00    -0.223 OA
ENDROOT
BRANCH   1   9
ATOM      8  C   UNL     1      49.032  81.170  41.096  0.00  0.00    +0.002 C 
ATOM      9  C   UNL     1      47.777  80.834  41.234  0.00  0.00    -0.026 C 
BRANCH   8  10
ATOM     10  C   UNL     1      49.972  81.385  42.220  0.00  0.00    +0.174 C 
ATOM     11  O   UNL     1      51.262  81.380  41.717  0.00  0.00    -0.218 OA
BRANCH  10  12
ATOM     12  C   UNL     1      49.764  82.677  42.965  0.00  0.00    +0.037 C 
BRANCH  12  13
ATOM     13  C   UNL     1      50.737  82.891  44.082  0.00  0.00    +0.003 C 
BRANCH  13  14
ATOM     14  C   UNL     1      50.622  84.322  44.553  0.00  0.00    +0.000 C 
BRANCH  14  16
ATOM     15  C   UNL     1      51.519  86.111  46.083  0.00  0.00    +0.000 C 
ATOM     16  C   UNL     1      51.441  84.652  45.750  0.00  0.00    +0.000 C 
ENDBRANCH  14  16
ENDBRANCH  13  14
ENDBRANCH  12  13
ENDBRANCH  10  12
ENDBRANCH   8  10
ENDBRANCH   1   9
BRANCH   5  17
ATOM     17  C   UNL     1      44.522  80.600  39.424  0.00  0.00    +0.029 C 
BRANCH  17  18
ATOM     18  C   UNL     1      43.945  79.484  38.657  0.00  0.00    -0.031 C 
ATOM     19  C   UNL     1      42.684  79.136  38.545  0.00  0.00    -0.031 C 
BRANCH  19  20
ATOM     20  C   UNL     1      42.106  78.151  37.602  0.00  0.00    +0.026 C 
BRANCH  20  21
ATOM     21  C   UNL     1      41.129  77.227  38.258  0.00  0.00    +0.016 C 
BRANCH  21  22
ATOM     22  C   UNL     1      40.018  76.739  37.398  0.00  0.00    +0.114 C 
BRANCH  22  23
ATOM     23  C   UNL     1      39.107  75.833  38.107  0.00  0.00    +0.365 C 
ATOM     24  O   UNL     1      38.200  76.223  38.874  0.00  0.00    -0.246 OA
ATOM     25  O   UNL     1      39.279  74.452  37.899  0.00  0.00    -0.246 OA
ENDBRANCH  22  23
ENDBRANCH  21  22
ENDBRANCH  20  21
ENDBRANCH  19  20
ENDBRANCH  17  18
ENDBRANCH   5  17
TORSDOF 12
REMARK  Name = Dinoprost_Tromethamine
REMARK  15 active torsions:
REMARK  status: ('A' for Active; 'I' for Inactive)
REMARK    1  A    between atoms: C_2  and  C_3
REMARK    2  A    between atoms: C_3  and  C_4
REMARK    3  A    between atoms: C_4  and  C_5
REMARK    4  A    between atoms: C_5  and  C_6
REMARK    5  A    between atoms: C_6  and  C_7
REMARK    6  A    between atoms: C_8  and  C_9
REMARK    7  A    between atoms: C_13  and  C_14
REMARK    8  A    between atoms: C_14  and  C_15
REMARK    9  A    between atoms: C_16  and  C_17
REMARK   10  A    between atoms: C_17  and  C_18
REMARK   11  A    between atoms: C_18  and  C_19
REMARK   12  A    between atoms: C_19  and  C_20
REMARK   13  A    between atoms: C_26  and  C_27
REMARK   14  A    between atoms: C_27  and  C_28
REMARK   15  A    between atoms: C_27  and  C_30
REMARK                            x       y       z     vdW  Elec       q    Type
REMARK                         _______ _______ _______ _____ _____    ______ ____
ROOT
ATOM      1  C   UNL     1      46.038  79.860  40.859  0.00  0.00    +0.168 C 
ATOM      2  N   UNL     1      46.471  79.291  39.619  0.00  0.00    -0.126 NA
ENDROOT
BRANCH   1   3
ATOM      3  C   UNL     1      45.357  81.217  40.663  0.00  0.00    +0.205 C 
ATOM      4  O   UNL     1      44.172  81.040  39.963  0.00  0.00    -0.219 OA
ENDBRANCH   1   3
BRANCH   1   5
ATOM      5  C   UNL     1      47.249  80.028  41.747  0.00  0.00    +0.205 C 
ATOM      6  O   UNL     1      47.877  81.251  41.518  0.00  0.00    -0.219 OA
ENDBRANCH   1   5
BRANCH   1   7
ATOM      7  C   UNL     1      45.040  78.947  41.529  0.00  0.00    +0.205 C 
ATOM      8  O   UNL     1      45.672  77.765  41.926  0.00  0.00    -0.219 OA
ENDBRANCH   1   7
TORSDOF 3
