REMARK  Name = Dinoprostone
REMARK  12 active torsions:
REMARK  status: ('A' for Active; 'I' for Inactive)
REMARK    1  A    between atoms: C_2  and  C_3
REMARK    2  A    between atoms: C_3  and  C_4
REMARK    3  A    between atoms: C_4  and  C_5
REMARK    4  A    between atoms: C_5  and  C_6
REMARK    5  A    between atoms: C_6  and  C_7
REMARK    6  A    between atoms: C_8  and  C_9
REMARK    7  A    between atoms: C_14  and  C_15
REMARK    8  A    between atoms: C_15  and  C_16
REMARK    9  A    between atoms: C_17  and  C_18
REMARK   10  A    between atoms: C_18  and  C_19
REMARK   11  A    between atoms: C_19  and  C_20
REMARK   12  A    between atoms: C_20  and  C_21
REMARK                            x       y       z     vdW  Elec       q    Type
REMARK                         _______ _______ _______ _____ _____    ______ ____
ROOT
ATOM      1  C   UNL     1      43.584  78.424  38.941  0.00  0.00    +0.060 C 
ATOM      2  C   UNL     1      42.861  78.169  37.615  0.00  0.00    +0.164 C 
ATOM      3  C   UNL     1      41.383  78.153  37.929  0.00  0.00    +0.098 C 
ATOM      4  C   UNL     1      41.304  78.826  39.246  0.00  0.00    +0.154 C 
ATOM      5  O   UNL     1      40.478  79.599  39.682  0.00  0.00    -0.296 OA
ATOM      6  C   UNL     1      42.500  78.354  39.994  0.00  0.00    +0.068 C 
ATOM      7  O   UNL     1      43.278  76.933  37.123  0.00  0.00    -0.222 OA
ENDROOT
BRANCH   1   9
ATOM      8  C   UNL     1      45.265  80.165  39.532  0.00  0.00    +0.002 C 
ATOM      9  C   UNL     1      44.200  79.764  38.870  0.00  0.00    -0.026 C 
BRANCH   8  10
ATOM     10  C   UNL     1      45.941  81.459  39.392  0.00  0.00    +0.174 C 
ATOM     11  O   UNL     1      45.179  82.362  38.611  0.00  0.00    -0.218 OA
BRANCH  10  12
ATOM     12  C   UNL     1      46.265  82.166  40.672  0.00  0.00    +0.037 C 
BRANCH  12  13
ATOM     13  C   UNL     1      47.475  83.014  40.706  0.00  0.00    +0.003 C 
BRANCH  13  14
ATOM     14  C   UNL     1      47.623  83.794  41.978  0.00  0.00    +0.000 C 
BRANCH  14  16
ATOM     15  C   UNL     1      49.043  85.442  43.133  0.00  0.00    +0.000 C 
ATOM     16  C   UNL     1      48.978  84.541  41.929  0.00  0.00    +0.000 C 
ENDBRANCH  14  16
ENDBRANCH  13  14
ENDBRANCH  12  13
ENDBRANCH  10  12
ENDBRANCH   8  10
ENDBRANCH   1   9
BRANCH   6  17
ATOM     17  C   UNL     1      42.237  76.953  40.463  0.00  0.00    +0.033 C 
BRANCH  17  18
ATOM     18  C   UNL     1      43.075  76.712  41.670  0.00  0.00    -0.030 C 
ATOM     19  C   UNL     1      44.361  76.416  41.608  0.00  0.00    -0.031 C 
BRANCH  19  20
ATOM     20  C   UNL     1      45.155  76.397  42.864  0.00  0.00    +0.026 C 
BRANCH  20  21
ATOM     21  C   UNL     1      45.229  74.967  43.342  0.00  0.00    +0.016 C 
BRANCH  21  22
ATOM     22  C   UNL     1      46.476  74.282  42.933  0.00  0.00    +0.114 C 
BRANCH  22  23
ATOM     23  C   UNL     1      47.288  73.905  44.097  0.00  0.00    +0.365 C 
ATOM     24  O   UNL     1      48.507  73.680  43.974  0.00  0.00    -0.246 OA
ATOM     25  O   UNL     1      46.721  73.792  45.356  0.00  0.00    -0.246 OA
ENDBRANCH  22  23
ENDBRANCH  21  22
ENDBRANCH  20  21
ENDBRANCH  19  20
ENDBRANCH  17  18
ENDBRANCH   6  17
TORSDOF 12
