REMARK  Name = Diosmin
REMARK  7 active torsions:
REMARK  status: ('A' for Active; 'I' for Inactive)
REMARK    1  A    between atoms: C_6  and  O_8
REMARK    2  A    between atoms: O_8  and  C_9
REMARK    3  A    between atoms: C_9  and  C_10
REMARK    4  A    between atoms: C_14  and  O_16
REMARK    5  A    between atoms: O_16  and  C_17
REMARK    6  A    between atoms: C_24  and  C_28
REMARK    7  A    between atoms: C_31  and  O_34
REMARK                            x       y       z     vdW  Elec       q    Type
REMARK                         _______ _______ _______ _____ _____    ______ ____
ROOT
ATOM      1  O   UNL     1      42.946  77.384  40.739  0.00  0.00    -0.450 OA
ENDROOT
BRANCH   1   2
ATOM      2  C   UNL     1      43.580  78.441  40.174  0.00  0.00    +0.148 A 
ATOM      3  C   UNL     1      43.115  79.044  39.032  0.00  0.00    +0.079 A 
ATOM      4  C   UNL     1      43.840  80.118  38.540  0.00  0.00    +0.205 A 
ATOM      5  C   UNL     1      44.984  80.555  39.182  0.00  0.00    +0.113 A 
ATOM      6  C   UNL     1      45.471  79.966  40.330  0.00  0.00    +0.154 A 
ATOM      7  C   UNL     1      44.739  78.887  40.820  0.00  0.00    +0.075 A 
ATOM      8  O   UNL     1      46.555  80.394  40.922  0.00  0.00    -0.453 OA
ATOM      9  C   UNL     1      47.289  81.405  40.508  0.00  0.00    +0.149 A 
ATOM     10  C   UNL     1      46.847  82.030  39.364  0.00  0.00    +0.080 A 
ATOM     11  C   UNL     1      45.713  81.628  38.694  0.00  0.00    +0.205 A 
ATOM     12  O   UNL     1      45.300  82.196  37.641  0.00  0.00    -0.286 OA
ATOM     13  O   UNL     1      43.405  80.755  37.392  0.00  0.00    -0.286 OA
BRANCH   9  14
ATOM     14  C   UNL     1      48.485  81.819  41.231  0.00  0.00    +0.038 A 
ATOM     15  C   UNL     1      48.585  81.899  42.578  0.00  0.00    +0.048 A 
ATOM     16  C   UNL     1      49.788  82.296  43.178  0.00  0.00    +0.229 A 
ATOM     17  C   UNL     1      50.902  82.618  42.444  0.00  0.00    +0.177 A 
ATOM     18  C   UNL     1      50.795  82.534  41.048  0.00  0.00    +0.040 A 
ATOM     19  C   UNL     1      49.607  82.143  40.486  0.00  0.00    +0.006 A 
ATOM     20  O   UNL     1      49.871  82.371  44.564  0.00  0.00    -0.283 OA
BRANCH  17  21
ATOM     21  O   UNL     1      52.117  83.015  42.983  0.00  0.00    -0.468 OA
ATOM     22  C   UNL     1      53.228  83.240  42.157  0.00  0.00    +0.253 C 
ENDBRANCH  17  21
ENDBRANCH   9  14
ENDBRANCH   1   2
BRANCH   1  27
ATOM     23  C   UNL     1      41.755  74.249  39.986  0.00  0.00    +0.181 C 
ATOM     24  C   UNL     1      40.502  74.444  39.186  0.00  0.00    +0.214 C 
ATOM     25  C   UNL     1      40.636  75.707  38.381  0.00  0.00    +0.221 C 
ATOM     26  C   UNL     1      41.842  76.528  38.761  0.00  0.00    +0.254 C 
ATOM     27  C   UNL     1      41.954  76.546  40.261  0.00  0.00    +0.322 C 
ATOM     28  O   UNL     1      42.102  75.285  40.805  0.00  0.00    -0.316 OA
ATOM     29  O   UNL     1      43.005  76.076  38.145  0.00  0.00    -0.213 OA
ATOM     30  O   UNL     1      39.461  76.484  38.523  0.00  0.00    -0.217 OA
ATOM     31  O   UNL     1      39.346  74.517  39.951  0.00  0.00    -0.218 OA
BRANCH  23  32
ATOM     32  C   UNL     1      41.596  72.961  40.792  0.00  0.00    +0.177 C 
BRANCH  32  33
ATOM     33  O   UNL     1      42.849  72.647  41.308  0.00  0.00    -0.326 OA
BRANCH  33  39
ATOM     34  C   UNL     1      41.519  70.485  40.892  0.00  0.00    +0.035 C 
ATOM     35  C   UNL     1      41.956  70.369  42.340  0.00  0.00    +0.151 C 
ATOM     36  C   UNL     1      43.248  69.633  42.424  0.00  0.00    +0.212 C 
ATOM     37  C   UNL     1      44.451  70.512  42.508  0.00  0.00    +0.220 C 
ATOM     38  C   UNL     1      44.218  71.859  43.110  0.00  0.00    +0.241 C 
ATOM     39  C   UNL     1      42.897  72.465  42.664  0.00  0.00    +0.269 C 
ATOM     40  O   UNL     1      41.910  71.565  43.020  0.00  0.00    -0.328 OA
ATOM     41  O   UNL     1      44.200  71.770  44.499  0.00  0.00    -0.215 OA
ATOM     42  O   UNL     1      45.414  69.854  43.311  0.00  0.00    -0.217 OA
ATOM     43  O   UNL     1      43.186  68.709  43.472  0.00  0.00    -0.218 OA
ENDBRANCH  33  39
ENDBRANCH  32  33
ENDBRANCH  23  32
ENDBRANCH   1  27
TORSDOF 7
