REMARK  Name = Diphenoxylate
REMARK  10 active torsions:
REMARK  status: ('A' for Active; 'I' for Inactive)
REMARK    1  A    between atoms: C_2  and  O_3
REMARK    2  A    between atoms: O_3  and  C_4
REMARK    3  A    between atoms: C_4  and  C_6
REMARK    4  A    between atoms: C_6  and  C_29
REMARK    5  A    between atoms: N_9  and  C_12
REMARK    6  A    between atoms: C_12  and  C_13
REMARK    7  A    between atoms: C_13  and  C_14
REMARK    8  A    between atoms: C_14  and  C_15
REMARK    9  A    between atoms: C_14  and  C_17
REMARK   10  A    between atoms: C_14  and  C_23
REMARK                            x       y       z     vdW  Elec       q    Type
REMARK                         _______ _______ _______ _____ _____    ______ ____
ROOT
ATOM      1  C   UNL     1      48.988  82.237  41.832  0.00  0.00    +0.111 C 
ATOM      2  C   UNL     1      48.498  82.313  40.441  0.00  0.00    +0.032 C 
ATOM      3  C   UNL     1      47.266  81.493  40.152  0.00  0.00    +0.073 C 
ATOM      4  N   UNL     1      47.419  80.078  40.440  0.00  0.00    -0.273 NA
ATOM      5  C   UNL     1      48.563  79.919  41.308  0.00  0.00    +0.073 C 
ATOM      6  C   UNL     1      48.416  80.932  42.433  0.00  0.00    +0.032 C 
ENDROOT
BRANCH   1   7
ATOM      7  C   UNL     1      48.720  83.367  42.711  0.00  0.00    -0.013 A 
ATOM      8  C   UNL     1      49.622  83.663  43.739  0.00  0.00    -0.004 A 
ATOM      9  C   UNL     1      49.372  84.775  44.537  0.00  0.00    -0.000 A 
ATOM     10  C   UNL     1      48.302  85.591  44.374  0.00  0.00    -0.000 A 
ATOM     11  C   UNL     1      47.385  85.310  43.345  0.00  0.00    -0.000 A 
ATOM     12  C   UNL     1      47.645  84.202  42.561  0.00  0.00    -0.004 A 
ENDBRANCH   1   7
BRANCH   1  13
ATOM     13  C   UNL     1      50.476  81.941  41.792  0.00  0.00    +0.320 C 
ATOM     14  O   UNL     1      50.851  80.766  42.079  0.00  0.00    -0.250 OA
BRANCH  13  15
ATOM     15  O   UNL     1      51.388  82.864  41.475  0.00  0.00    -0.448 OA
BRANCH  15  17
ATOM     16  C   UNL     1      53.303  83.434  40.066  0.00  0.00    +0.051 C 
ATOM     17  C   UNL     1      52.726  82.721  41.268  0.00  0.00    +0.209 C 
ENDBRANCH  15  17
ENDBRANCH  13  15
ENDBRANCH   1  13
BRANCH   4  18
ATOM     18  C   UNL     1      46.208  79.496  40.950  0.00  0.00    +0.074 C 
BRANCH  18  19
ATOM     19  C   UNL     1      45.467  78.618  40.002  0.00  0.00    +0.040 C 
BRANCH  19  20
ATOM     20  C   UNL     1      44.068  78.279  40.431  0.00  0.00    +0.118 C 
BRANCH  20  21
ATOM     21  C   UNL     1      44.207  77.290  41.542  0.00  0.00    -0.006 A 
ATOM     22  C   UNL     1      45.022  76.199  41.450  0.00  0.00    -0.003 A 
ATOM     23  C   UNL     1      45.081  75.333  42.525  0.00  0.00    -0.000 A 
ATOM     24  C   UNL     1      44.344  75.561  43.650  0.00  0.00    -0.000 A 
ATOM     25  C   UNL     1      43.490  76.684  43.776  0.00  0.00    -0.000 A 
ATOM     26  C   UNL     1      43.468  77.512  42.681  0.00  0.00    -0.003 A 
ENDBRANCH  20  21
BRANCH  20  27
ATOM     27  C   UNL     1      43.146  77.853  39.383  0.00  0.00    -0.006 A 
ATOM     28  C   UNL     1      42.789  78.737  38.418  0.00  0.00    -0.003 A 
ATOM     29  C   UNL     1      41.941  78.392  37.387  0.00  0.00    -0.000 A 
ATOM     30  C   UNL     1      41.437  77.081  37.344  0.00  0.00    -0.000 A 
ATOM     31  C   UNL     1      41.808  76.199  38.328  0.00  0.00    -0.000 A 
ATOM     32  C   UNL     1      42.654  76.546  39.356  0.00  0.00    -0.003 A 
ENDBRANCH  20  27
BRANCH  20  33
ATOM     33  C   UNL     1      43.503  79.492  41.060  0.00  0.00    +0.079 C 
ATOM     34  N   UNL     1      43.072  80.434  41.569  0.00  0.00    -0.195 NA
ENDBRANCH  20  33
ENDBRANCH  19  20
ENDBRANCH  18  19
ENDBRANCH   4  18
TORSDOF 10
