REMARK  Name = Diphenhydramine
REMARK  6 active torsions:
REMARK  status: ('A' for Active; 'I' for Inactive)
REMARK    1  A    between atoms: N_2  and  C_4
REMARK    2  A    between atoms: C_4  and  C_5
REMARK    3  A    between atoms: C_5  and  O_6
REMARK    4  A    between atoms: O_6  and  C_7
REMARK    5  A    between atoms: C_7  and  C_8
REMARK    6  A    between atoms: C_7  and  C_14
REMARK                            x       y       z     vdW  Elec       q    Type
REMARK                         _______ _______ _______ _____ _____    ______ ____
ROOT
ATOM      1  C   UNL     1      44.722  79.061  39.437  0.00  0.00    +0.160 C 
ENDROOT
BRANCH   1   2
ATOM      2  C   UNL     1      45.552  80.285  39.630  0.00  0.00    +0.009 A 
ATOM      3  C   UNL     1      46.309  80.450  40.770  0.00  0.00    -0.002 A 
ATOM      4  C   UNL     1      47.094  81.585  40.976  0.00  0.00    -0.000 A 
ATOM      5  C   UNL     1      47.105  82.562  40.001  0.00  0.00    -0.000 A 
ATOM      6  C   UNL     1      46.350  82.401  38.858  0.00  0.00    -0.000 A 
ATOM      7  C   UNL     1      45.581  81.275  38.672  0.00  0.00    -0.002 A 
ENDBRANCH   1   2
BRANCH   1   8
ATOM      8  C   UNL     1      44.814  78.157  40.617  0.00  0.00    +0.009 A 
ATOM      9  C   UNL     1      45.664  77.073  40.634  0.00  0.00    -0.002 A 
ATOM     10  C   UNL     1      45.753  76.229  41.731  0.00  0.00    -0.000 A 
ATOM     11  C   UNL     1      44.977  76.465  42.842  0.00  0.00    -0.000 A 
ATOM     12  C   UNL     1      44.125  77.542  42.840  0.00  0.00    -0.000 A 
ATOM     13  C   UNL     1      44.044  78.379  41.740  0.00  0.00    -0.002 A 
ENDBRANCH   1   8
BRANCH   1  14
ATOM     14  O   UNL     1      43.406  79.375  39.130  0.00  0.00    -0.346 OA
BRANCH  14  15
ATOM     15  C   UNL     1      42.818  78.524  38.209  0.00  0.00    +0.160 C 
BRANCH  15  16
ATOM     16  C   UNL     1      41.324  78.519  38.228  0.00  0.00    +0.105 C 
BRANCH  16  18
ATOM     17  C   UNL     1      39.383  77.720  37.080  0.00  0.00    +0.090 C 
ATOM     18  N   UNL     1      40.773  77.458  37.401  0.00  0.00    -0.268 NA
ATOM     19  C   UNL     1      40.825  76.228  38.161  0.00  0.00    +0.090 C 
ENDBRANCH  16  18
ENDBRANCH  15  16
ENDBRANCH  14  15
ENDBRANCH   1  14
TORSDOF 6
