REMARK  Name = Dipyridamole
REMARK  8 active torsions:
REMARK  status: ('A' for Active; 'I' for Inactive)
REMARK    1  A    between atoms: N_23  and  C_24
REMARK    2  A    between atoms: N_23  and  C_27
REMARK    3  A    between atoms: C_24  and  C_25
REMARK    4  A    between atoms: C_27  and  C_28
REMARK    5  A    between atoms: N_30  and  C_31
REMARK    6  A    between atoms: N_30  and  C_34
REMARK    7  A    between atoms: C_31  and  C_32
REMARK    8  A    between atoms: C_34  and  C_35
REMARK                            x       y       z     vdW  Elec       q    Type
REMARK                         _______ _______ _______ _____ _____    ______ ____
ROOT
ATOM      1  C   UNL     1      45.479  76.159  46.178  0.00  0.00    +0.004 C 
ATOM      2  C   UNL     1      46.751  76.200  45.403  0.00  0.00    +0.022 C 
ATOM      3  C   UNL     1      46.632  76.706  43.995  0.00  0.00    +0.092 C 
ATOM      4  N   UNL     1      45.354  76.199  43.419  0.00  0.00    -0.292 N 
ATOM      5  C   UNL     1      44.865  75.040  44.090  0.00  0.00    +0.092 C 
ATOM      6  C   UNL     1      44.341  75.500  45.443  0.00  0.00    +0.022 C 
ATOM      7  C   UNL     1      44.851  76.905  42.343  0.00  0.00    +0.154 A 
ATOM      8  N   UNL     1      45.450  78.049  41.928  0.00  0.00    -0.197 NA
ATOM      9  C   UNL     1      44.979  78.743  40.873  0.00  0.00    +0.222 A 
ATOM     10  N   UNL     1      43.920  78.353  40.189  0.00  0.00    -0.209 NA
ATOM     11  C   UNL     1      43.269  77.231  40.533  0.00  0.00    +0.136 A 
ATOM     12  C   UNL     1      43.752  76.496  41.636  0.00  0.00    +0.136 A 
ATOM     13  N   UNL     1      43.138  75.368  42.015  0.00  0.00    -0.209 NA
ATOM     14  C   UNL     1      42.058  74.895  41.378  0.00  0.00    +0.222 A 
ATOM     15  N   UNL     1      41.595  75.591  40.330  0.00  0.00    -0.197 NA
ATOM     16  C   UNL     1      42.165  76.749  39.881  0.00  0.00    +0.154 A 
ATOM     17  N   UNL     1      41.610  77.437  38.787  0.00  0.00    -0.292 N 
ATOM     18  C   UNL     1      42.350  78.647  38.362  0.00  0.00    +0.092 C 
ATOM     19  C   UNL     1      41.879  79.013  36.989  0.00  0.00    +0.022 C 
ATOM     20  C   UNL     1      41.811  77.804  36.082  0.00  0.00    +0.004 C 
ATOM     21  C   UNL     1      40.940  76.715  36.604  0.00  0.00    +0.022 C 
ATOM     22  C   UNL     1      40.462  77.114  38.017  0.00  0.00    +0.092 C 
ATOM     23  N   UNL     1      41.374  73.688  41.754  0.00  0.00    -0.273 N 
ATOM     24  N   UNL     1      45.648  79.941  40.455  0.00  0.00    -0.273 N 
ENDROOT
BRANCH  23  25
ATOM     25  C   UNL     1      41.617  73.209  43.098  0.00  0.00    +0.129 C 
BRANCH  25  26
ATOM     26  C   UNL     1      42.838  72.303  43.019  0.00  0.00    +0.203 C 
ATOM     27  O   UNL     1      43.170  71.845  44.271  0.00  0.00    -0.219 OA
ENDBRANCH  25  26
ENDBRANCH  23  25
BRANCH  23  28
ATOM     28  C   UNL     1      40.502  73.025  40.837  0.00  0.00    +0.129 C 
BRANCH  28  29
ATOM     29  C   UNL     1      39.196  73.771  40.647  0.00  0.00    +0.203 C 
ATOM     30  O   UNL     1      38.395  72.980  39.823  0.00  0.00    -0.219 OA
ENDBRANCH  28  29
ENDBRANCH  23  28
BRANCH  24  31
ATOM     31  C   UNL     1      44.940  80.846  39.583  0.00  0.00    +0.129 C 
BRANCH  31  32
ATOM     32  C   UNL     1      45.665  81.129  38.287  0.00  0.00    +0.203 C 
ATOM     33  O   UNL     1      45.140  82.291  37.749  0.00  0.00    -0.219 OA
ENDBRANCH  31  32
ENDBRANCH  24  31
BRANCH  24  34
ATOM     34  C   UNL     1      46.978  80.147  40.925  0.00  0.00    +0.129 C 
BRANCH  34  35
ATOM     35  C   UNL     1      47.221  81.416  41.678  0.00  0.00    +0.203 C 
ATOM     36  O   UNL     1      48.513  81.878  41.589  0.00  0.00    -0.219 OA
ENDBRANCH  34  35
ENDBRANCH  24  34
TORSDOF 8
