REMARK  Name = Dirithromycin
REMARK  12 active torsions:
REMARK  status: ('A' for Active; 'I' for Inactive)
REMARK    1  A    between atoms: C_2  and  C_3
REMARK    2  A    between atoms: C_11  and  O_32
REMARK    3  A    between atoms: C_13  and  O_19
REMARK    4  A    between atoms: O_19  and  C_20
REMARK    5  A    between atoms: C_22  and  O_29
REMARK    6  A    between atoms: O_32  and  C_33
REMARK    7  A    between atoms: C_35  and  N_40
REMARK    8  A    between atoms: C_48  and  C_50
REMARK    9  A    between atoms: C_50  and  O_51
REMARK   10  A    between atoms: O_51  and  C_52
REMARK   11  A    between atoms: C_52  and  C_53
REMARK   12  A    between atoms: C_53  and  O_54
REMARK                            x       y       z     vdW  Elec       q    Type
REMARK                         _______ _______ _______ _____ _____    ______ ____
ROOT
ATOM      1  C   UNL     1      47.134  80.908  39.313  0.00  0.00    +0.199 C 
ATOM      2  C   UNL     1      48.269  81.253  40.222  0.00  0.00    +0.188 C 
ATOM      3  C   UNL     1      48.107  80.656  41.577  0.00  0.00    +0.149 C 
ATOM      4  C   UNL     1      48.031  79.139  41.579  0.00  0.00    +0.046 C 
ATOM      5  C   UNL     1      47.424  78.854  42.965  0.00  0.00    +0.078 C 
ATOM      6  C   UNL     1      46.831  77.508  43.006  0.00  0.00    +0.019 C 
ATOM      7  C   UNL     1      45.399  77.399  43.427  0.00  0.00    +0.034 C 
ATOM      8  C   UNL     1      44.363  77.851  42.477  0.00  0.00    +0.152 C 
ATOM      9  C   UNL     1      44.271  77.178  41.173  0.00  0.00    +0.148 C 
ATOM     10  C   UNL     1      43.322  77.680  40.165  0.00  0.00    +0.058 C 
ATOM     11  C   UNL     1      43.148  79.102  39.857  0.00  0.00    +0.131 C 
ATOM     12  C   UNL     1      44.171  79.699  38.878  0.00  0.00    +0.126 C 
ATOM     13  C   UNL     1      44.650  81.028  39.344  0.00  0.00    +0.319 C 
ATOM     14  O   UNL     1      43.802  81.944  39.251  0.00  0.00    -0.250 OA
ATOM     15  O   UNL     1      45.891  81.311  39.844  0.00  0.00    -0.450 OA
ATOM     16  C   UNL     1      43.637  79.900  37.501  0.00  0.00    +0.014 C 
ATOM     17  C   UNL     1      43.591  76.915  38.881  0.00  0.00    +0.005 C 
ATOM     18  C   UNL     1      43.015  77.757  43.208  0.00  0.00    +0.035 C 
ATOM     19  O   UNL     1      44.576  79.218  42.306  0.00  0.00    -0.223 OA
ATOM     20  C   UNL     1      47.663  76.557  43.878  0.00  0.00    +0.002 C 
ATOM     21  N   UNL     1      48.585  79.071  43.833  0.00  0.00    -0.191 NA
ATOM     22  C   UNL     1      48.809  80.547  43.744  0.00  0.00    +0.219 C 
ATOM     23  O   UNL     1      49.119  80.919  42.457  0.00  0.00    -0.337 OA
ATOM     24  C   UNL     1      49.363  78.470  41.504  0.00  0.00    +0.004 C 
ATOM     25  C   UNL     1      49.582  80.869  39.566  0.00  0.00    +0.039 C 
ATOM     26  O   UNL     1      48.296  82.639  40.379  0.00  0.00    -0.219 OA
ENDROOT
BRANCH   1  28
ATOM     27  C   UNL     1      47.365  83.051  38.017  0.00  0.00    +0.004 C 
ATOM     28  C   UNL     1      47.356  81.552  37.936  0.00  0.00    +0.046 C 
ENDBRANCH   1  28
BRANCH  11  29
ATOM     29  O   UNL     1      41.921  79.218  39.156  0.00  0.00    -0.332 OA
BRANCH  29  30
ATOM     30  C   UNL     1      40.968  78.350  39.651  0.00  0.00    +0.238 C 
ATOM     31  C   UNL     1      39.759  78.232  38.773  0.00  0.00    +0.091 C 
ATOM     32  C   UNL     1      39.831  76.939  37.942  0.00  0.00    +0.128 C 
ATOM     33  C   UNL     1      41.243  76.751  37.488  0.00  0.00    +0.204 C 
ATOM     34  C   UNL     1      42.127  76.622  38.682  0.00  0.00    +0.150 C 
ATOM     35  O   UNL     1      41.507  77.066  39.853  0.00  0.00    -0.330 OA
ATOM     36  C   UNL     1      42.699  75.242  38.788  0.00  0.00    +0.035 C 
ATOM     37  O   UNL     1      41.347  75.621  36.702  0.00  0.00    -0.218 OA
ATOM     38  C   UNL     1      38.965  77.140  36.706  0.00  0.00    +0.033 C 
BRANCH  32  39
ATOM     39  O   UNL     1      39.404  75.922  38.737  0.00  0.00    -0.353 OA
ATOM     40  C   UNL     1      38.136  75.459  38.622  0.00  0.00    +0.174 C 
ENDBRANCH  32  39
ENDBRANCH  29  30
ENDBRANCH  11  29
BRANCH   9  41
ATOM     41  O   UNL     1      43.918  75.823  41.422  0.00  0.00    -0.328 OA
BRANCH  41  42
ATOM     42  C   UNL     1      44.936  75.050  41.891  0.00  0.00    +0.268 C 
ATOM     43  C   UNL     1      44.350  73.855  42.608  0.00  0.00    +0.222 C 
ATOM     44  C   UNL     1      45.193  72.602  42.344  0.00  0.00    +0.096 C 
ATOM     45  C   UNL     1      44.993  72.298  40.859  0.00  0.00    +0.048 C 
ATOM     46  C   UNL     1      45.097  73.603  40.099  0.00  0.00    +0.119 C 
ATOM     47  O   UNL     1      45.761  74.560  40.861  0.00  0.00    -0.331 OA
ATOM     48  C   UNL     1      45.925  73.346  38.859  0.00  0.00    +0.032 C 
ATOM     49  O   UNL     1      43.082  73.553  42.060  0.00  0.00    -0.216 OA
BRANCH  44  50
ATOM     50  N   UNL     1      44.627  71.513  43.078  0.00  0.00    -0.269 NA
ATOM     51  C   UNL     1      45.140  70.275  42.471  0.00  0.00    +0.090 C 
ATOM     52  C   UNL     1      44.973  71.531  44.483  0.00  0.00    +0.090 C 
ENDBRANCH  44  50
ENDBRANCH  41  42
ENDBRANCH   9  41
BRANCH  22  53
ATOM     53  C   UNL     1      49.810  80.959  44.767  0.00  0.00    +0.190 C 
BRANCH  53  54
ATOM     54  O   UNL     1      51.118  80.901  44.487  0.00  0.00    -0.347 OA
BRANCH  54  55
ATOM     55  C   UNL     1      51.827  79.939  45.091  0.00  0.00    +0.174 C 
BRANCH  55  56
ATOM     56  C   UNL     1      52.301  78.894  44.109  0.00  0.00    +0.174 C 
BRANCH  56  57
ATOM     57  O   UNL     1      52.332  79.321  42.836  0.00  0.00    -0.348 OA
ATOM     58  C   UNL     1      52.679  78.437  41.882  0.00  0.00    +0.174 C 
ENDBRANCH  56  57
ENDBRANCH  55  56
ENDBRANCH  54  55
ENDBRANCH  53  54
ENDBRANCH  22  53
TORSDOF 12
