REMARK  Name = Disopyramide
REMARK  8 active torsions:
REMARK  status: ('A' for Active; 'I' for Inactive)
REMARK    1  A    between atoms: C_2  and  N_4
REMARK    2  A    between atoms: N_4  and  C_5
REMARK    3  A    between atoms: N_4  and  C_23
REMARK    4  A    between atoms: C_5  and  C_6
REMARK    5  A    between atoms: C_6  and  C_7
REMARK    6  A    between atoms: C_7  and  C_8
REMARK    7  A    between atoms: C_7  and  C_14
REMARK    8  A    between atoms: C_7  and  C_20
REMARK                            x       y       z     vdW  Elec       q    Type
REMARK                         _______ _______ _______ _____ _____    ______ ____
ROOT
ATOM      1  C   UNL     1      46.859  81.215  40.303  0.00  0.00    +0.127 C 
ENDROOT
BRANCH   1   2
ATOM      2  C   UNL     1      45.750  80.254  40.381  0.00  0.00    -0.009 A 
ATOM      3  C   UNL     1      45.697  79.283  41.359  0.00  0.00    -0.003 A 
ATOM      4  C   UNL     1      44.642  78.365  41.414  0.00  0.00    -0.000 A 
ATOM      5  C   UNL     1      43.649  78.442  40.474  0.00  0.00    -0.000 A 
ATOM      6  C   UNL     1      43.684  79.396  39.498  0.00  0.00    -0.000 A 
ATOM      7  C   UNL     1      44.744  80.309  39.452  0.00  0.00    -0.003 A 
ENDBRANCH   1   2
BRANCH   1   8
ATOM      8  C   UNL     1      46.835  82.229  41.362  0.00  0.00    +0.070 A 
ATOM      9  C   UNL     1      46.501  83.550  41.152  0.00  0.00    +0.016 A 
ATOM     10  C   UNL     1      46.516  84.458  42.190  0.00  0.00    +0.003 A 
ATOM     11  C   UNL     1      46.871  84.046  43.466  0.00  0.00    +0.021 A 
ATOM     12  C   UNL     1      47.199  82.721  43.642  0.00  0.00    +0.098 A 
ATOM     13  N   UNL     1      47.170  81.882  42.608  0.00  0.00    -0.247 NA
ENDBRANCH   1   8
BRANCH   1  14
ATOM     14  C   UNL     1      46.678  81.985  39.011  0.00  0.00    +0.269 C 
ATOM     15  O   UNL     1      46.885  81.408  37.922  0.00  0.00    -0.271 OA
ATOM     16  N   UNL     1      46.287  83.327  39.033  0.00  0.00    -0.087 NA
ENDBRANCH   1  14
BRANCH   1  17
ATOM     17  C   UNL     1      48.199  80.537  40.251  0.00  0.00    +0.036 C 
BRANCH  17  18
ATOM     18  C   UNL     1      49.273  81.420  40.802  0.00  0.00    +0.073 C 
BRANCH  18  19
ATOM     19  N   UNL     1      50.589  80.808  40.695  0.00  0.00    -0.275 NA
BRANCH  19  21
ATOM     20  C   UNL     1      50.857  78.412  40.189  0.00  0.00    +0.017 C 
ATOM     21  C   UNL     1      50.592  79.500  41.191  0.00  0.00    +0.058 C 
ATOM     22  C   UNL     1      51.466  79.260  42.395  0.00  0.00    +0.017 C 
ENDBRANCH  19  21
BRANCH  19  23
ATOM     23  C   UNL     1      51.661  81.686  40.896  0.00  0.00    +0.058 C 
ATOM     24  C   UNL     1      52.943  81.012  40.361  0.00  0.00    +0.017 C 
ATOM     25  C   UNL     1      51.987  81.956  42.355  0.00  0.00    +0.017 C 
ENDBRANCH  19  23
ENDBRANCH  18  19
ENDBRANCH  17  18
ENDBRANCH   1  17
TORSDOF 8
