REMARK  Name = Dithranol
REMARK  0 active torsions:
REMARK  status: ('A' for Active; 'I' for Inactive)
REMARK                            x       y       z     vdW  Elec       q    Type
REMARK                         _______ _______ _______ _____ _____    ______ ____
ROOT
ATOM      1  C   UNL     1      46.362  79.277  41.431  0.00  0.00    +0.053 C 
ATOM      2  C   UNL     1      45.199  78.708  40.749  0.00  0.00    -0.012 A 
ATOM      3  C   UNL     1      44.567  79.302  39.700  0.00  0.00    +0.074 A 
ATOM      4  C   UNL     1      43.467  78.695  39.107  0.00  0.00    +0.198 A 
ATOM      5  C   UNL     1      42.962  77.487  39.534  0.00  0.00    +0.042 A 
ATOM      6  C   UNL     1      43.599  76.883  40.594  0.00  0.00    +0.003 A 
ATOM      7  C   UNL     1      44.683  77.465  41.191  0.00  0.00    -0.004 A 
ATOM      8  O   UNL     1      42.881  79.365  38.045  0.00  0.00    -0.286 OA
ATOM      9  C   UNL     1      45.067  80.592  39.209  0.00  0.00    +0.201 C 
ATOM     10  O   UNL     1      44.487  81.129  38.253  0.00  0.00    -0.286 OA
ATOM     11  C   UNL     1      46.221  81.217  39.840  0.00  0.00    +0.074 A 
ATOM     12  C   UNL     1      46.813  80.568  40.891  0.00  0.00    -0.012 A 
ATOM     13  C   UNL     1      47.940  81.178  41.507  0.00  0.00    -0.004 A 
ATOM     14  C   UNL     1      48.383  82.381  41.027  0.00  0.00    +0.003 A 
ATOM     15  C   UNL     1      47.800  83.045  39.973  0.00  0.00    +0.042 A 
ATOM     16  C   UNL     1      46.710  82.443  39.385  0.00  0.00    +0.198 A 
ATOM     17  O   UNL     1      46.094  83.076  38.322  0.00  0.00    -0.286 OA
ENDROOT
TORSDOF 0
