REMARK  Name = Dixyrazine
REMARK  9 active torsions:
REMARK  status: ('A' for Active; 'I' for Inactive)
REMARK    1  A    between atoms: C_2  and  C_3
REMARK    2  A    between atoms: C_2  and  C_16
REMARK    3  A    between atoms: C_3  and  N_4
REMARK    4  A    between atoms: N_7  and  C_10
REMARK    5  A    between atoms: C_10  and  C_11
REMARK    6  A    between atoms: C_11  and  O_12
REMARK    7  A    between atoms: O_12  and  C_13
REMARK    8  A    between atoms: C_13  and  C_14
REMARK    9  A    between atoms: C_16  and  N_17
REMARK                            x       y       z     vdW  Elec       q    Type
REMARK                         _______ _______ _______ _____ _____    ______ ____
ROOT
ATOM      1  C   UNL     1      45.859  82.008  39.935  0.00  0.00    +0.003 C 
ATOM      2  C   UNL     1      46.183  80.576  40.315  0.00  0.00    +0.036 C 
ENDROOT
BRANCH   2   3
ATOM      3  C   UNL     1      44.845  79.829  40.179  0.00  0.00    +0.074 C 
BRANCH   3   4
ATOM      4  N   UNL     1      44.876  78.831  39.133  0.00  0.00    -0.270 NA
ATOM      5  C   UNL     1      44.404  77.577  39.677  0.00  0.00    +0.090 C 
ATOM      6  C   UNL     1      42.933  77.567  39.989  0.00  0.00    +0.090 C 
ATOM      7  N   UNL     1      42.215  77.826  38.802  0.00  0.00    -0.268 NA
ATOM      8  C   UNL     1      42.632  78.969  38.086  0.00  0.00    +0.090 C 
ATOM      9  C   UNL     1      44.094  79.213  37.973  0.00  0.00    +0.090 C 
BRANCH   7  10
ATOM     10  C   UNL     1      41.476  76.837  38.184  0.00  0.00    +0.105 C 
BRANCH  10  11
ATOM     11  C   UNL     1      40.251  77.069  37.392  0.00  0.00    +0.160 C 
BRANCH  11  12
ATOM     12  O   UNL     1      39.577  76.147  36.728  0.00  0.00    -0.350 OA
BRANCH  12  13
ATOM     13  C   UNL     1      38.427  75.576  37.076  0.00  0.00    +0.178 C 
BRANCH  13  14
ATOM     14  C   UNL     1      38.023  74.593  35.947  0.00  0.00    +0.214 C 
ATOM     15  O   UNL     1      37.617  75.389  34.859  0.00  0.00    -0.218 OA
ENDBRANCH  13  14
ENDBRANCH  12  13
ENDBRANCH  11  12
ENDBRANCH  10  11
ENDBRANCH   7  10
ENDBRANCH   3   4
ENDBRANCH   2   3
BRANCH   2  16
ATOM     16  C   UNL     1      46.690  80.461  41.715  0.00  0.00    +0.097 C 
BRANCH  16  17
ATOM     17  N   UNL     1      48.030  80.864  41.964  0.00  0.00    -0.286 N 
ATOM     18  C   UNL     1      49.087  79.941  41.726  0.00  0.00    +0.058 A 
ATOM     19  C   UNL     1      48.778  78.663  41.260  0.00  0.00    +0.015 A 
ATOM     20  C   UNL     1      49.757  77.724  40.998  0.00  0.00    +0.001 A 
ATOM     21  C   UNL     1      51.092  77.989  41.181  0.00  0.00    +0.001 A 
ATOM     22  C   UNL     1      51.398  79.246  41.640  0.00  0.00    +0.008 A 
ATOM     23  C   UNL     1      50.425  80.194  41.906  0.00  0.00    +0.043 A 
ATOM     24  S   UNL     1      50.954  81.792  42.522  0.00  0.00    -0.084 S 
ATOM     25  C   UNL     1      49.469  82.753  42.704  0.00  0.00    +0.043 A 
ATOM     26  C   UNL     1      49.645  84.039  43.115  0.00  0.00    +0.008 A 
ATOM     27  C   UNL     1      48.581  84.888  43.288  0.00  0.00    +0.001 A 
ATOM     28  C   UNL     1      47.339  84.355  43.019  0.00  0.00    +0.001 A 
ATOM     29  C   UNL     1      47.167  83.062  42.605  0.00  0.00    +0.015 A 
ATOM     30  C   UNL     1      48.236  82.218  42.435  0.00  0.00    +0.058 A 
ENDBRANCH  16  17
ENDBRANCH   2  16
TORSDOF 9
