REMARK  Name = Dobutamine
REMARK  7 active torsions:
REMARK  status: ('A' for Active; 'I' for Inactive)
REMARK    1  A    between atoms: C_2  and  C_3
REMARK    2  A    between atoms: C_2  and  N_12
REMARK    3  A    between atoms: C_3  and  C_4
REMARK    4  A    between atoms: C_4  and  C_5
REMARK    5  A    between atoms: N_12  and  C_13
REMARK    6  A    between atoms: C_13  and  C_14
REMARK    7  A    between atoms: C_14  and  C_15
REMARK                            x       y       z     vdW  Elec       q    Type
REMARK                         _______ _______ _______ _____ _____    ______ ____
ROOT
ATOM      1  C   UNL     1      45.197  79.255  42.082  0.00  0.00    +0.019 C 
ATOM      2  C   UNL     1      45.812  79.595  40.760  0.00  0.00    +0.073 C 
ENDROOT
BRANCH   2   3
ATOM      3  C   UNL     1      45.364  78.692  39.644  0.00  0.00    +0.022 C 
BRANCH   3   4
ATOM      4  C   UNL     1      44.711  77.420  40.096  0.00  0.00    +0.028 C 
BRANCH   4   5
ATOM      5  C   UNL     1      43.394  77.329  39.461  0.00  0.00    -0.022 A 
ATOM      6  C   UNL     1      43.008  78.264  38.527  0.00  0.00    -0.001 A 
ATOM      7  C   UNL     1      41.769  78.201  37.910  0.00  0.00    +0.042 A 
ATOM      8  C   UNL     1      40.897  77.189  38.228  0.00  0.00    +0.196 A 
ATOM      9  C   UNL     1      41.262  76.235  39.165  0.00  0.00    +0.042 A 
ATOM     10  C   UNL     1      42.510  76.328  39.764  0.00  0.00    -0.001 A 
ATOM     11  O   UNL     1      39.640  77.106  37.618  0.00  0.00    -0.287 OA
ENDBRANCH   4   5
ENDBRANCH   3   4
ENDBRANCH   2   3
BRANCH   2  12
ATOM     12  N   UNL     1      47.248  79.441  40.868  0.00  0.00    -0.219 NA
BRANCH  12  13
ATOM     13  C   UNL     1      47.974  80.656  41.014  0.00  0.00    +0.093 C 
BRANCH  13  14
ATOM     14  C   UNL     1      47.420  81.575  42.080  0.00  0.00    +0.045 C 
BRANCH  14  15
ATOM     15  C   UNL     1      48.455  82.506  42.562  0.00  0.00    -0.017 A 
ATOM     16  C   UNL     1      49.768  82.294  42.253  0.00  0.00    +0.041 A 
ATOM     17  C   UNL     1      50.757  83.179  42.706  0.00  0.00    +0.234 A 
ATOM     18  C   UNL     1      50.374  84.262  43.468  0.00  0.00    +0.234 A 
ATOM     19  C   UNL     1      49.057  84.491  43.789  0.00  0.00    +0.045 A 
ATOM     20  C   UNL     1      48.109  83.595  43.322  0.00  0.00    -0.001 A 
ATOM     21  O   UNL     1      51.363  85.149  43.922  0.00  0.00    -0.283 OA
ATOM     22  O   UNL     1      52.082  82.934  42.374  0.00  0.00    -0.283 OA
ENDBRANCH  14  15
ENDBRANCH  13  14
ENDBRANCH  12  13
ENDBRANCH   2  12
TORSDOF 7
