REMARK  Name = Docarpamine
REMARK  16 active torsions:
REMARK  status: ('A' for Active; 'I' for Inactive)
REMARK    1  A    between atoms: C_2  and  O_3
REMARK    2  A    between atoms: O_3  and  C_4
REMARK    3  A    between atoms: C_4  and  O_6
REMARK    4  A    between atoms: O_6  and  C_7
REMARK    5  A    between atoms: C_8  and  O_27
REMARK    6  A    between atoms: C_10  and  C_13
REMARK    7  A    between atoms: C_13  and  C_14
REMARK    8  A    between atoms: C_14  and  N_15
REMARK    9  A    between atoms: C_16  and  C_18
REMARK   10  A    between atoms: C_18  and  C_19
REMARK   11  A    between atoms: C_18  and  N_23
REMARK   12  A    between atoms: C_19  and  C_20
REMARK   13  A    between atoms: C_20  and  S_21
REMARK   14  A    between atoms: O_27  and  C_28
REMARK   15  A    between atoms: C_28  and  O_30
REMARK   16  A    between atoms: O_30  and  C_31
REMARK                            x       y       z     vdW  Elec       q    Type
REMARK                         _______ _______ _______ _____ _____    ______ ____
ROOT
ATOM      1  C   UNL     1      47.906  82.054  39.990  0.00  0.00    +0.186 A 
ATOM      2  C   UNL     1      47.613  81.213  41.042  0.00  0.00    +0.186 A 
ATOM      3  C   UNL     1      46.444  80.485  41.094  0.00  0.00    +0.037 A 
ATOM      4  C   UNL     1      45.500  80.561  40.082  0.00  0.00    -0.017 A 
ATOM      5  C   UNL     1      45.786  81.397  39.029  0.00  0.00    -0.001 A 
ATOM      6  C   UNL     1      46.972  82.135  38.980  0.00  0.00    +0.041 A 
ENDROOT
BRANCH   2   7
ATOM      7  O   UNL     1      48.555  81.120  42.078  0.00  0.00    -0.390 OA
BRANCH   7   8
ATOM      8  C   UNL     1      48.410  81.962  43.180  0.00  0.00    +0.517 C 
ATOM      9  O   UNL     1      47.617  82.937  43.181  0.00  0.00    -0.202 OA
BRANCH   8  10
ATOM     10  O   UNL     1      49.149  81.759  44.351  0.00  0.00    -0.418 OA
BRANCH  10  11
ATOM     11  C   UNL     1      50.504  82.113  44.437  0.00  0.00    +0.212 C 
ATOM     12  C   UNL     1      50.754  83.586  44.416  0.00  0.00    +0.051 C 
ENDBRANCH  10  11
ENDBRANCH   8  10
ENDBRANCH   7   8
ENDBRANCH   2   7
BRANCH   4  13
ATOM     13  C   UNL     1      44.240  79.758  40.149  0.00  0.00    +0.050 C 
BRANCH  13  14
ATOM     14  C   UNL     1      44.268  78.528  39.305  0.00  0.00    +0.120 C 
BRANCH  14  15
ATOM     15  N   UNL     1      42.989  77.874  39.346  0.00  0.00    -0.204 NA
ATOM     16  C   UNL     1      41.906  78.083  38.480  0.00  0.00    +0.261 C 
ATOM     17  O   UNL     1      42.068  78.970  37.586  0.00  0.00    -0.271 OA
BRANCH  16  18
ATOM     18  C   UNL     1      40.607  77.379  38.514  0.00  0.00    +0.174 C 
BRANCH  18  19
ATOM     19  N   UNL     1      39.670  78.229  37.748  0.00  0.00    -0.198 NA
ATOM     20  C   UNL     1      38.305  78.334  38.043  0.00  0.00    +0.242 C 
ATOM     21  O   UNL     1      37.877  77.751  39.075  0.00  0.00    -0.273 OA
ATOM     22  C   UNL     1      37.394  79.109  37.163  0.00  0.00    +0.096 C 
ENDBRANCH  18  19
BRANCH  18  23
ATOM     23  C   UNL     1      40.751  76.066  37.785  0.00  0.00    +0.043 C 
BRANCH  23  24
ATOM     24  C   UNL     1      39.522  75.230  37.928  0.00  0.00    +0.060 C 
BRANCH  24  25
ATOM     25  S   UNL     1      39.635  73.740  36.859  0.00  0.00    -0.139 S 
ATOM     26  C   UNL     1      38.185  72.684  37.226  0.00  0.00    +0.069 C 
ENDBRANCH  24  25
ENDBRANCH  23  24
ENDBRANCH  18  23
ENDBRANCH  16  18
ENDBRANCH  14  15
ENDBRANCH  13  14
ENDBRANCH   4  13
BRANCH   1  27
ATOM     27  O   UNL     1      49.089  82.791  39.939  0.00  0.00    -0.390 OA
BRANCH  27  28
ATOM     28  C   UNL     1      50.343  82.205  39.839  0.00  0.00    +0.517 C 
ATOM     29  O   UNL     1      50.409  80.948  39.997  0.00  0.00    -0.202 OA
BRANCH  28  30
ATOM     30  O   UNL     1      51.495  82.901  39.584  0.00  0.00    -0.418 OA
BRANCH  30  32
ATOM     31  C   UNL     1      52.717  82.552  41.579  0.00  0.00    +0.051 C 
ATOM     32  C   UNL     1      52.138  83.576  40.647  0.00  0.00    +0.212 C 
ENDBRANCH  30  32
ENDBRANCH  28  30
ENDBRANCH  27  28
ENDBRANCH   1  27
TORSDOF 16
