REMARK  Name = Docetaxel
REMARK  13 active torsions:
REMARK  status: ('A' for Active; 'I' for Inactive)
REMARK    1  A    between atoms: C_11  and  O_52
REMARK    2  A    between atoms: C_13  and  O_41
REMARK    3  A    between atoms: C_19  and  O_20
REMARK    4  A    between atoms: O_20  and  C_21
REMARK    5  A    between atoms: C_21  and  C_23
REMARK    6  A    between atoms: C_23  and  C_24
REMARK    7  A    between atoms: C_24  and  C_25
REMARK    8  A    between atoms: C_24  and  N_31
REMARK    9  A    between atoms: C_32  and  O_34
REMARK   10  A    between atoms: O_34  and  C_35
REMARK   11  A    between atoms: O_41  and  C_42
REMARK   12  A    between atoms: C_42  and  C_44
REMARK   13  A    between atoms: O_52  and  C_53
REMARK                            x       y       z     vdW  Elec       q    Type
REMARK                         _______ _______ _______ _____ _____    ______ ____
ROOT
ATOM      1  C   UNL     1      48.810  81.949  38.892  0.00  0.00    +0.029 C 
ATOM      2  C   UNL     1      48.088  81.356  40.060  0.00  0.00    -0.010 C 
ATOM      3  C   UNL     1      46.807  81.715  40.209  0.00  0.00    -0.010 C 
ATOM      4  C   UNL     1      46.236  81.991  38.894  0.00  0.00    +0.227 C 
ATOM      5  C   UNL     1      45.030  81.137  38.766  0.00  0.00    +0.186 C 
ATOM      6  O   UNL     1      44.092  81.767  38.284  0.00  0.00    -0.293 OA
ATOM      7  C   UNL     1      44.572  79.730  39.035  0.00  0.00    +0.089 C 
ATOM      8  C   UNL     1      44.559  79.088  37.648  0.00  0.00    +0.161 C 
ATOM      9  C   UNL     1      45.736  78.152  37.530  0.00  0.00    +0.067 C 
ATOM     10  C   UNL     1      45.373  76.989  38.433  0.00  0.00    +0.157 C 
ATOM     11  C   UNL     1      45.194  77.474  39.795  0.00  0.00    +0.191 C 
ATOM     12  C   UNL     1      45.414  78.978  40.023  0.00  0.00    +0.093 C 
ATOM     13  C   UNL     1      45.309  79.362  41.438  0.00  0.00    +0.201 C 
ATOM     14  C   UNL     1      46.408  80.240  42.032  0.00  0.00    +0.170 C 
ATOM     15  C   UNL     1      46.301  81.695  41.612  0.00  0.00    +0.047 C 
ATOM     16  C   UNL     1      44.928  82.239  41.788  0.00  0.00    +0.007 C 
ATOM     17  C   UNL     1      47.223  82.547  42.467  0.00  0.00    +0.007 C 
ATOM     18  C   UNL     1      47.784  79.731  41.943  0.00  0.00    +0.082 C 
ATOM     19  C   UNL     1      48.726  80.409  40.973  0.00  0.00    +0.189 C 
ATOM     20  O   UNL     1      46.020  80.298  43.407  0.00  0.00    -0.222 OA
ATOM     21  C   UNL     1      46.581  76.754  39.894  0.00  0.00    +0.185 C 
ATOM     22  O   UNL     1      46.395  76.134  38.697  0.00  0.00    -0.349 OA
ATOM     23  O   UNL     1      44.510  80.007  36.625  0.00  0.00    -0.223 OA
ATOM     24  C   UNL     1      43.156  79.863  39.548  0.00  0.00    +0.010 C 
ATOM     25  O   UNL     1      45.877  83.319  38.810  0.00  0.00    -0.211 OA
ENDROOT
BRANCH  19  26
ATOM     26  O   UNL     1      49.795  81.020  41.664  0.00  0.00    -0.446 OA
BRANCH  26  27
ATOM     27  C   UNL     1      50.748  80.327  42.405  0.00  0.00    +0.350 C 
ATOM     28  O   UNL     1      51.581  79.653  41.772  0.00  0.00    -0.247 OA
BRANCH  27  29
ATOM     29  C   UNL     1      50.685  80.439  43.867  0.00  0.00    +0.274 C 
ATOM     30  O   UNL     1      49.347  80.523  44.243  0.00  0.00    -0.209 OA
BRANCH  29  31
ATOM     31  C   UNL     1      51.545  81.466  44.484  0.00  0.00    +0.162 C 
BRANCH  31  32
ATOM     32  C   UNL     1      51.174  82.853  44.030  0.00  0.00    +0.001 A 
ATOM     33  C   UNL     1      50.051  83.462  44.519  0.00  0.00    -0.003 A 
ATOM     34  C   UNL     1      49.709  84.740  44.093  0.00  0.00    -0.000 A 
ATOM     35  C   UNL     1      50.473  85.410  43.191  0.00  0.00    -0.000 A 
ATOM     36  C   UNL     1      51.608  84.805  42.691  0.00  0.00    -0.000 A 
ATOM     37  C   UNL     1      51.940  83.535  43.118  0.00  0.00    -0.003 A 
ENDBRANCH  31  32
BRANCH  31  38
ATOM     38  N   UNL     1      51.535  81.465  45.956  0.00  0.00    -0.163 NA
ATOM     39  C   UNL     1      52.351  80.519  46.609  0.00  0.00    +0.421 C 
ATOM     40  O   UNL     1      53.431  80.185  46.038  0.00  0.00    -0.225 OA
BRANCH  39  41
ATOM     41  O   UNL     1      52.070  79.928  47.828  0.00  0.00    -0.441 OA
BRANCH  41  42
ATOM     42  C   UNL     1      53.174  79.484  48.624  0.00  0.00    +0.138 C 
ATOM     43  C   UNL     1      53.799  78.312  47.906  0.00  0.00    +0.044 C 
ATOM     44  C   UNL     1      54.209  80.533  48.850  0.00  0.00    +0.044 C 
ATOM     45  C   UNL     1      52.661  78.938  49.951  0.00  0.00    +0.044 C 
ENDBRANCH  41  42
ENDBRANCH  39  41
ENDBRANCH  31  38
ENDBRANCH  29  31
ENDBRANCH  27  29
ENDBRANCH  26  27
ENDBRANCH  19  26
BRANCH  13  46
ATOM     46  O   UNL     1      45.117  78.251  42.316  0.00  0.00    -0.446 OA
BRANCH  46  47
ATOM     47  C   UNL     1      44.194  78.119  43.295  0.00  0.00    +0.341 C 
ATOM     48  O   UNL     1      43.101  78.659  43.086  0.00  0.00    -0.245 OA
BRANCH  47  49
ATOM     49  C   UNL     1      44.532  77.378  44.490  0.00  0.00    +0.076 A 
ATOM     50  C   UNL     1      45.807  76.927  44.680  0.00  0.00    +0.006 A 
ATOM     51  C   UNL     1      46.186  76.204  45.822  0.00  0.00    +0.000 A 
ATOM     52  C   UNL     1      45.227  75.949  46.773  0.00  0.00    +0.000 A 
ATOM     53  C   UNL     1      43.947  76.397  46.588  0.00  0.00    +0.000 A 
ATOM     54  C   UNL     1      43.586  77.106  45.465  0.00  0.00    +0.006 A 
ENDBRANCH  47  49
ENDBRANCH  46  47
ENDBRANCH  13  46
BRANCH  11  55
ATOM     55  O   UNL     1      44.377  76.785  40.681  0.00  0.00    -0.451 OA
BRANCH  55  56
ATOM     56  C   UNL     1      44.758  76.195  41.871  0.00  0.00    +0.317 C 
ATOM     57  O   UNL     1      45.911  76.440  42.246  0.00  0.00    -0.250 OA
ATOM     58  C   UNL     1      43.876  75.310  42.690  0.00  0.00    +0.121 C 
ENDBRANCH  55  56
ENDBRANCH  11  55
TORSDOF 13
