REMARK  Name = Docosanol
REMARK  20 active torsions:
REMARK  status: ('A' for Active; 'I' for Inactive)
REMARK    1  A    between atoms: C_2  and  C_3
REMARK    2  A    between atoms: C_3  and  C_4
REMARK    3  A    between atoms: C_4  and  C_5
REMARK    4  A    between atoms: C_5  and  C_6
REMARK    5  A    between atoms: C_6  and  C_7
REMARK    6  A    between atoms: C_7  and  C_8
REMARK    7  A    between atoms: C_8  and  C_9
REMARK    8  A    between atoms: C_9  and  C_10
REMARK    9  A    between atoms: C_10  and  C_11
REMARK   10  A    between atoms: C_11  and  C_12
REMARK   11  A    between atoms: C_12  and  C_13
REMARK   12  A    between atoms: C_13  and  C_14
REMARK   13  A    between atoms: C_14  and  C_15
REMARK   14  A    between atoms: C_15  and  C_16
REMARK   15  A    between atoms: C_16  and  C_17
REMARK   16  A    between atoms: C_17  and  C_18
REMARK   17  A    between atoms: C_18  and  C_19
REMARK   18  A    between atoms: C_19  and  C_20
REMARK   19  A    between atoms: C_20  and  C_21
REMARK   20  A    between atoms: C_21  and  C_22
REMARK                            x       y       z     vdW  Elec       q    Type
REMARK                         _______ _______ _______ _____ _____    ______ ____
ROOT
ATOM      1  C   UNL     1      46.600  80.339  41.465  0.00  0.00    +0.000 C 
ENDROOT
BRANCH   1   2
ATOM      2  C   UNL     1      45.694  80.462  40.263  0.00  0.00    +0.000 C 
BRANCH   2   3
ATOM      3  C   UNL     1      45.054  79.183  39.873  0.00  0.00    +0.000 C 
BRANCH   3   4
ATOM      4  C   UNL     1      43.603  79.086  39.759  0.00  0.00    +0.000 C 
BRANCH   4   5
ATOM      5  C   UNL     1      42.879  79.449  38.534  0.00  0.00    +0.000 C 
BRANCH   5   6
ATOM      6  C   UNL     1      41.992  78.491  37.869  0.00  0.00    +0.000 C 
BRANCH   6   7
ATOM      7  C   UNL     1      41.330  77.595  38.927  0.00  0.00    +0.000 C 
BRANCH   7   8
ATOM      8  C   UNL     1      40.385  76.594  38.386  0.00  0.00    +0.000 C 
BRANCH   8   9
ATOM      9  C   UNL     1      40.672  76.343  36.906  0.00  0.00    +0.003 C 
BRANCH   9  10
ATOM     10  C   UNL     1      39.838  75.227  36.337  0.00  0.00    +0.036 C 
BRANCH  10  11
ATOM     11  C   UNL     1      39.990  73.952  37.157  0.00  0.00    +0.182 C 
ATOM     12  O   UNL     1      38.852  73.753  37.935  0.00  0.00    -0.220 OA
ENDBRANCH  10  11
ENDBRANCH   9  10
ENDBRANCH   8   9
ENDBRANCH   7   8
ENDBRANCH   6   7
ENDBRANCH   5   6
ENDBRANCH   4   5
ENDBRANCH   3   4
ENDBRANCH   2   3
ENDBRANCH   1   2
BRANCH   1  13
ATOM     13  C   UNL     1      47.845  81.189  41.253  0.00  0.00    +0.000 C 
BRANCH  13  14
ATOM     14  C   UNL     1      48.002  82.240  42.296  0.00  0.00    +0.000 C 
BRANCH  14  15
ATOM     15  C   UNL     1      49.239  82.037  43.174  0.00  0.00    +0.000 C 
BRANCH  15  16
ATOM     16  C   UNL     1      49.964  83.342  43.245  0.00  0.00    +0.000 C 
BRANCH  16  17
ATOM     17  C   UNL     1      50.123  83.913  44.610  0.00  0.00    +0.000 C 
BRANCH  17  18
ATOM     18  C   UNL     1      51.341  83.274  45.318  0.00  0.00    +0.000 C 
BRANCH  18  19
ATOM     19  C   UNL     1      52.080  84.370  46.007  0.00  0.00    +0.000 C 
BRANCH  19  20
ATOM     20  C   UNL     1      52.509  84.200  47.394  0.00  0.00    +0.000 C 
BRANCH  20  21
ATOM     21  C   UNL     1      53.905  83.992  47.781  0.00  0.00    +0.000 C 
BRANCH  21  23
ATOM     22  C   UNL     1      55.741  83.327  49.203  0.00  0.00    +0.000 C 
ATOM     23  C   UNL     1      54.291  83.902  49.209  0.00  0.00    +0.000 C 
ENDBRANCH  21  23
ENDBRANCH  20  21
ENDBRANCH  19  20
ENDBRANCH  18  19
ENDBRANCH  17  18
ENDBRANCH  16  17
ENDBRANCH  15  16
ENDBRANCH  14  15
ENDBRANCH  13  14
ENDBRANCH   1  13
TORSDOF 20
