REMARK  Name = Docusate
REMARK  18 active torsions:
REMARK  status: ('A' for Active; 'I' for Inactive)
REMARK    1  A    between atoms: C_2  and  C_3
REMARK    2  A    between atoms: C_3  and  C_4
REMARK    3  A    between atoms: C_4  and  C_5
REMARK    4  A    between atoms: C_5  and  C_6
REMARK    5  A    between atoms: C_5  and  C_8
REMARK    6  A    between atoms: C_8  and  O_9
REMARK    7  A    between atoms: O_9  and  C_10
REMARK    8  A    between atoms: C_10  and  C_12
REMARK    9  A    between atoms: C_12  and  C_13
REMARK   10  A    between atoms: C_13  and  C_14
REMARK   11  A    between atoms: C_13  and  S_25
REMARK   12  A    between atoms: C_14  and  O_16
REMARK   13  A    between atoms: O_16  and  C_17
REMARK   14  A    between atoms: C_17  and  C_18
REMARK   15  A    between atoms: C_18  and  C_19
REMARK   16  A    between atoms: C_18  and  C_21
REMARK   17  A    between atoms: C_21  and  C_22
REMARK   18  A    between atoms: C_22  and  C_23
REMARK                            x       y       z     vdW  Elec       q    Type
REMARK                         _______ _______ _______ _____ _____    ______ ____
ROOT
ATOM      1  C   UNL     1      46.307  80.337  39.626  0.00  0.00    +0.269 C 
ENDROOT
BRANCH   1   2
ATOM      2  S   UNL     1      45.658  81.822  38.956  0.00  0.00    +0.130 S 
ATOM      3  O   UNL     1      44.888  82.518  40.070  0.00  0.00    -0.144 OA
ATOM      4  O   UNL     1      44.704  81.615  37.842  0.00  0.00    -0.144 OA
ATOM      5  O   UNL     1      46.913  82.858  38.545  0.00  0.00    -0.046 OA
ENDBRANCH   1   2
BRANCH   1   6
ATOM      6  C   UNL     1      46.845  80.515  40.997  0.00  0.00    +0.342 C 
ATOM      7  O   UNL     1      46.657  79.620  41.844  0.00  0.00    -0.248 OA
BRANCH   6   8
ATOM      8  O   UNL     1      47.537  81.632  41.342  0.00  0.00    -0.447 OA
BRANCH   8   9
ATOM      9  C   UNL     1      48.403  81.939  42.335  0.00  0.00    +0.208 C 
BRANCH   9  10
ATOM     10  C   UNL     1      48.892  83.339  42.394  0.00  0.00    +0.044 C 
BRANCH  10  11
ATOM     11  C   UNL     1      47.877  84.317  42.825  0.00  0.00    +0.004 C 
ATOM     12  C   UNL     1      47.351  83.998  44.238  0.00  0.00    +0.000 C 
ENDBRANCH  10  11
BRANCH  10  13
ATOM     13  C   UNL     1      50.181  83.464  43.203  0.00  0.00    +0.004 C 
BRANCH  13  14
ATOM     14  C   UNL     1      51.367  82.985  42.443  0.00  0.00    +0.000 C 
BRANCH  14  15
ATOM     15  C   UNL     1      52.130  84.217  41.927  0.00  0.00    +0.000 C 
ATOM     16  C   UNL     1      53.325  83.776  41.094  0.00  0.00    +0.000 C 
ENDBRANCH  14  15
ENDBRANCH  13  14
ENDBRANCH  10  13
ENDBRANCH   9  10
ENDBRANCH   8   9
ENDBRANCH   6   8
ENDBRANCH   1   6
BRANCH   1  17
ATOM     17  C   UNL     1      45.376  79.173  39.574  0.00  0.00    +0.147 C 
BRANCH  17  18
ATOM     18  C   UNL     1      45.932  77.922  40.083  0.00  0.00    +0.319 C 
ATOM     19  O   UNL     1      47.076  77.552  39.768  0.00  0.00    -0.250 OA
BRANCH  18  20
ATOM     20  O   UNL     1      45.179  77.144  40.920  0.00  0.00    -0.448 OA
BRANCH  20  21
ATOM     21  C   UNL     1      45.554  75.990  41.603  0.00  0.00    +0.208 C 
BRANCH  21  22
ATOM     22  C   UNL     1      44.336  75.520  42.433  0.00  0.00    +0.044 C 
BRANCH  22  23
ATOM     23  C   UNL     1      43.587  74.475  41.721  0.00  0.00    +0.004 C 
ATOM     24  C   UNL     1      42.554  73.681  42.401  0.00  0.00    +0.000 C 
ENDBRANCH  22  23
BRANCH  22  25
ATOM     25  C   UNL     1      44.648  75.419  43.844  0.00  0.00    +0.004 C 
BRANCH  25  26
ATOM     26  C   UNL     1      44.674  76.429  44.865  0.00  0.00    +0.000 C 
BRANCH  26  28
ATOM     27  C   UNL     1      45.057  77.481  47.106  0.00  0.00    +0.000 C 
ATOM     28  C   UNL     1      45.035  76.225  46.265  0.00  0.00    +0.000 C 
ENDBRANCH  26  28
ENDBRANCH  25  26
ENDBRANCH  22  25
ENDBRANCH  21  22
ENDBRANCH  20  21
ENDBRANCH  18  20
ENDBRANCH  17  18
ENDBRANCH   1  17
TORSDOF 18
