REMARK  Name = Dofetilide
REMARK  11 active torsions:
REMARK  status: ('A' for Active; 'I' for Inactive)
REMARK    1  A    between atoms: N_2  and  C_3
REMARK    2  A    between atoms: N_2  and  C_16
REMARK    3  A    between atoms: C_3  and  C_4
REMARK    4  A    between atoms: C_4  and  C_5
REMARK    5  A    between atoms: C_8  and  N_11
REMARK    6  A    between atoms: N_11  and  S_12
REMARK    7  A    between atoms: C_16  and  C_17
REMARK    8  A    between atoms: C_17  and  O_18
REMARK    9  A    between atoms: O_18  and  C_19
REMARK   10  A    between atoms: C_22  and  N_25
REMARK   11  A    between atoms: N_25  and  S_26
REMARK                            x       y       z     vdW  Elec       q    Type
REMARK                         _______ _______ _______ _____ _____    ______ ____
ROOT
ATOM      1  C   UNL     1      44.820  81.484  38.179  0.00  0.00    +0.090 C 
ATOM      2  N   UNL     1      45.048  80.871  39.492  0.00  0.00    -0.268 NA
ENDROOT
BRANCH   2   3
ATOM      3  C   UNL     1      46.153  81.381  40.134  0.00  0.00    +0.077 C 
BRANCH   3   4
ATOM      4  C   UNL     1      46.291  81.729  41.533  0.00  0.00    +0.044 C 
BRANCH   4   5
ATOM      5  C   UNL     1      47.615  82.036  42.095  0.00  0.00    -0.021 A 
ATOM      6  C   UNL     1      47.945  83.203  42.721  0.00  0.00    -0.003 A 
ATOM      7  C   UNL     1      49.219  83.461  43.248  0.00  0.00    +0.018 A 
ATOM      8  C   UNL     1      50.219  82.530  43.154  0.00  0.00    +0.091 A 
ATOM      9  C   UNL     1      49.904  81.326  42.516  0.00  0.00    +0.018 A 
ATOM     10  C   UNL     1      48.654  81.091  42.008  0.00  0.00    -0.003 A 
BRANCH   8  11
ATOM     11  N   UNL     1      51.542  82.740  43.656  0.00  0.00    -0.101 NA
BRANCH  11  12
ATOM     12  S   UNL     1      52.476  84.140  43.434  0.00  0.00    +0.075 S 
ATOM     13  O   UNL     1      52.895  84.770  44.734  0.00  0.00    -0.153 OA
ATOM     14  O   UNL     1      53.768  83.754  42.728  0.00  0.00    -0.153 OA
ATOM     15  C   UNL     1      51.676  85.302  42.369  0.00  0.00    +0.202 C 
ENDBRANCH  11  12
ENDBRANCH   8  11
ENDBRANCH   4   5
ENDBRANCH   3   4
ENDBRANCH   2   3
BRANCH   2  16
ATOM     16  C   UNL     1      44.016  80.163  40.007  0.00  0.00    +0.120 C 
BRANCH  16  17
ATOM     17  C   UNL     1      43.657  78.797  39.577  0.00  0.00    +0.223 C 
BRANCH  17  18
ATOM     18  O   UNL     1      42.412  78.351  39.577  0.00  0.00    -0.474 OA
BRANCH  18  19
ATOM     19  C   UNL     1      41.657  77.466  38.904  0.00  0.00    +0.139 A 
ATOM     20  C   UNL     1      41.303  76.238  39.400  0.00  0.00    +0.038 A 
ATOM     21  C   UNL     1      40.537  75.367  38.697  0.00  0.00    +0.021 A 
ATOM     22  C   UNL     1      40.071  75.663  37.441  0.00  0.00    +0.091 A 
ATOM     23  C   UNL     1      40.421  76.896  36.926  0.00  0.00    +0.021 A 
ATOM     24  C   UNL     1      41.190  77.790  37.616  0.00  0.00    +0.038 A 
BRANCH  22  25
ATOM     25  N   UNL     1      39.271  74.753  36.712  0.00  0.00    -0.101 NA
BRANCH  25  26
ATOM     26  S   UNL     1      37.560  74.729  36.833  0.00  0.00    +0.075 S 
ATOM     27  O   UNL     1      37.154  75.168  38.222  0.00  0.00    -0.153 OA
ATOM     28  O   UNL     1      37.057  73.321  36.607  0.00  0.00    -0.153 OA
ATOM     29  C   UNL     1      36.867  75.791  35.602  0.00  0.00    +0.202 C 
ENDBRANCH  25  26
ENDBRANCH  22  25
ENDBRANCH  18  19
ENDBRANCH  17  18
ENDBRANCH  16  17
ENDBRANCH   2  16
TORSDOF 11
