REMARK  Name = Dolasetron
REMARK  3 active torsions:
REMARK  status: ('A' for Active; 'I' for Inactive)
REMARK    1  A    between atoms: C_6  and  O_13
REMARK    2  A    between atoms: O_13  and  C_14
REMARK    3  A    between atoms: C_14  and  C_16
REMARK                            x       y       z     vdW  Elec       q    Type
REMARK                         _______ _______ _______ _____ _____    ______ ____
ROOT
ATOM      1  C   UNL     1      50.154  81.278  42.903  0.00  0.00    +0.024 C 
ATOM      2  C   UNL     1      51.025  82.448  42.421  0.00  0.00    +0.062 C 
ATOM      3  C   UNL     1      50.450  82.969  41.096  0.00  0.00    +0.024 C 
ATOM      4  C   UNL     1      48.983  83.219  41.303  0.00  0.00    +0.062 C 
ATOM      5  C   UNL     1      48.225  82.215  40.475  0.00  0.00    +0.060 C 
ATOM      6  C   UNL     1      47.144  81.518  41.292  0.00  0.00    +0.172 C 
ATOM      7  C   UNL     1      47.711  80.891  42.549  0.00  0.00    +0.060 C 
ATOM      8  C   UNL     1      48.761  81.804  43.154  0.00  0.00    +0.062 C 
ATOM      9  N   UNL     1      48.578  83.163  42.679  0.00  0.00    -0.269 NA
ATOM     10  C   UNL     1      49.388  84.040  43.504  0.00  0.00    +0.137 C 
ATOM     11  C   UNL     1      50.788  83.544  43.403  0.00  0.00    +0.166 C 
ATOM     12  O   UNL     1      51.721  83.965  44.053  0.00  0.00    -0.295 OA
ENDROOT
BRANCH   6  13
ATOM     13  O   UNL     1      46.531  80.562  40.447  0.00  0.00    -0.449 OA
BRANCH  13  14
ATOM     14  C   UNL     1      45.612  80.889  39.472  0.00  0.00    +0.343 C 
ATOM     15  O   UNL     1      45.708  82.033  38.958  0.00  0.00    -0.245 OA
BRANCH  14  16
ATOM     16  C   UNL     1      44.562  79.984  39.028  0.00  0.00    +0.096 A 
ATOM     17  C   UNL     1      43.780  80.138  37.906  0.00  0.00    +0.105 A 
ATOM     18  N   UNL     1      42.910  79.108  37.806  0.00  0.00    -0.244 NA
ATOM     19  C   UNL     1      43.133  78.289  38.864  0.00  0.00    +0.082 A 
ATOM     20  C   UNL     1      42.476  77.115  39.166  0.00  0.00    +0.019 A 
ATOM     21  C   UNL     1      42.882  76.444  40.311  0.00  0.00    +0.002 A 
ATOM     22  C   UNL     1      43.901  76.956  41.093  0.00  0.00    +0.000 A 
ATOM     23  C   UNL     1      44.540  78.134  40.764  0.00  0.00    +0.002 A 
ATOM     24  C   UNL     1      44.148  78.814  39.627  0.00  0.00    +0.025 A 
ENDBRANCH  14  16
ENDBRANCH  13  14
ENDBRANCH   6  13
TORSDOF 3
