REMARK  Name = Dolutegravir
REMARK  3 active torsions:
REMARK  status: ('A' for Active; 'I' for Inactive)
REMARK    1  A    between atoms: C_14  and  C_18
REMARK    2  A    between atoms: N_20  and  C_21
REMARK    3  A    between atoms: C_21  and  C_22
REMARK                            x       y       z     vdW  Elec       q    Type
REMARK                         _______ _______ _______ _____ _____    ______ ____
ROOT
ATOM      1  C   UNL     1      40.816  77.586  38.318  0.00  0.00    +0.022 C 
ATOM      2  C   UNL     1      41.424  77.204  39.615  0.00  0.00    +0.080 C 
ATOM      3  C   UNL     1      41.735  75.713  39.698  0.00  0.00    +0.052 C 
ATOM      4  C   UNL     1      43.204  75.553  39.359  0.00  0.00    +0.146 C 
ATOM      5  O   UNL     1      44.059  76.079  40.324  0.00  0.00    -0.336 OA
ATOM      6  C   UNL     1      43.494  77.240  40.904  0.00  0.00    +0.218 C 
ATOM      7  N   UNL     1      42.723  77.837  39.858  0.00  0.00    -0.253 N 
ATOM      8  C   UNL     1      43.228  78.922  39.128  0.00  0.00    +0.270 C 
ATOM      9  O   UNL     1      42.690  79.304  38.070  0.00  0.00    -0.268 OA
ATOM     10  C   UNL     1      44.421  79.601  39.654  0.00  0.00    +0.157 A 
ATOM     11  C   UNL     1      45.005  80.650  38.999  0.00  0.00    +0.254 A 
ATOM     12  C   UNL     1      46.153  81.275  39.487  0.00  0.00    +0.242 A 
ATOM     13  O   UNL     1      46.618  82.226  38.822  0.00  0.00    -0.283 OA
ATOM     14  C   UNL     1      46.740  80.850  40.657  0.00  0.00    +0.114 A 
ATOM     15  C   UNL     1      46.108  79.779  41.287  0.00  0.00    +0.084 A 
ATOM     16  N   UNL     1      44.984  79.184  40.790  0.00  0.00    -0.315 N 
ATOM     17  C   UNL     1      44.450  78.129  41.568  0.00  0.00    +0.157 C 
ATOM     18  O   UNL     1      44.449  81.099  37.834  0.00  0.00    -0.281 OA
ENDROOT
BRANCH  14  19
ATOM     19  C   UNL     1      47.932  81.432  41.246  0.00  0.00    +0.270 C 
ATOM     20  O   UNL     1      48.268  81.021  42.407  0.00  0.00    -0.268 OA
ATOM     21  N   UNL     1      48.755  82.406  40.667  0.00  0.00    -0.197 NA
BRANCH  21  22
ATOM     22  C   UNL     1      48.629  83.834  40.997  0.00  0.00    +0.144 C 
BRANCH  22  23
ATOM     23  C   UNL     1      49.383  84.186  42.226  0.00  0.00    +0.027 A 
ATOM     24  C   UNL     1      48.769  84.888  43.252  0.00  0.00    +0.140 A 
ATOM     25  C   UNL     1      49.450  85.229  44.398  0.00  0.00    +0.059 A 
ATOM     26  C   UNL     1      50.773  84.885  44.574  0.00  0.00    +0.142 A 
ATOM     27  C   UNL     1      51.399  84.195  43.581  0.00  0.00    +0.030 A 
ATOM     28  C   UNL     1      50.709  83.855  42.429  0.00  0.00    +0.002 A 
ATOM     29  F   UNL     1      51.444  85.227  45.717  0.00  0.00    -0.204 F 
ATOM     30  F   UNL     1      47.473  85.247  43.125  0.00  0.00    -0.204 F 
ENDBRANCH  22  23
ENDBRANCH  21  22
ENDBRANCH  14  19
TORSDOF 3
