REMARK  Name = Domperidone
REMARK  5 active torsions:
REMARK  status: ('A' for Active; 'I' for Inactive)
REMARK    1  A    between atoms: N_3  and  C_18
REMARK    2  A    between atoms: C_6  and  N_7
REMARK    3  A    between atoms: C_18  and  C_19
REMARK    4  A    between atoms: C_19  and  C_20
REMARK    5  A    between atoms: C_20  and  N_21
REMARK                            x       y       z     vdW  Elec       q    Type
REMARK                         _______ _______ _______ _____ _____    ______ ____
ROOT
ATOM      1  C   UNL     1      45.204  79.055  41.385  0.00  0.00    +0.040 C 
ATOM      2  C   UNL     1      43.932  79.324  40.654  0.00  0.00    +0.074 C 
ATOM      3  N   UNL     1      43.750  78.228  39.707  0.00  0.00    -0.272 NA
ATOM      4  C   UNL     1      44.970  77.621  39.307  0.00  0.00    +0.074 C 
ATOM      5  C   UNL     1      46.168  78.548  39.244  0.00  0.00    +0.040 C 
ATOM      6  C   UNL     1      46.403  79.346  40.481  0.00  0.00    +0.093 C 
ENDROOT
BRANCH   6   7
ATOM      7  N   UNL     1      46.652  80.735  40.302  0.00  0.00    -0.280 N 
ATOM      8  C   UNL     1      47.462  81.487  41.077  0.00  0.00    +0.082 A 
ATOM      9  C   UNL     1      47.453  82.804  40.589  0.00  0.00    +0.103 A 
ATOM     10  C   UNL     1      48.203  83.775  41.210  0.00  0.00    +0.032 A 
ATOM     11  C   UNL     1      48.960  83.445  42.310  0.00  0.00    +0.059 A 
ATOM     12  C   UNL     1      48.962  82.154  42.780  0.00  0.00    +0.013 A 
ATOM     13  C   UNL     1      48.223  81.175  42.177  0.00  0.00    +0.020 A 
ATOM     14 CL   UNL     1      49.943  84.661  43.143  0.00  0.00    -0.082 Cl
ATOM     15  N   UNL     1      46.626  82.770  39.533  0.00  0.00    -0.191 NA
ATOM     16  C   UNL     1      46.144  81.527  39.360  0.00  0.00    +0.350 A 
ATOM     17  O   UNL     1      45.364  81.228  38.461  0.00  0.00    -0.244 OA
ENDBRANCH   6   7
BRANCH   3  18
ATOM     18  C   UNL     1      42.815  77.280  40.231  0.00  0.00    +0.074 C 
BRANCH  18  19
ATOM     19  C   UNL     1      42.285  76.330  39.209  0.00  0.00    +0.042 C 
BRANCH  19  20
ATOM     20  C   UNL     1      40.778  76.226  39.233  0.00  0.00    +0.112 C 
BRANCH  20  21
ATOM     21  N   UNL     1      40.169  76.493  37.956  0.00  0.00    -0.278 N 
ATOM     22  C   UNL     1      39.747  75.572  37.042  0.00  0.00    +0.082 A 
ATOM     23  C   UNL     1      39.781  74.194  37.081  0.00  0.00    +0.019 A 
ATOM     24  C   UNL     1      39.293  73.441  36.034  0.00  0.00    +0.002 A 
ATOM     25  C   UNL     1      38.772  74.114  34.948  0.00  0.00    +0.002 A 
ATOM     26  C   UNL     1      38.733  75.496  34.901  0.00  0.00    +0.021 A 
ATOM     27  C   UNL     1      39.230  76.226  35.966  0.00  0.00    +0.102 A 
ATOM     28  N   UNL     1      39.337  77.533  36.223  0.00  0.00    -0.191 NA
ATOM     29  C   UNL     1      39.912  77.689  37.441  0.00  0.00    +0.350 A 
ATOM     30  O   UNL     1      40.155  78.797  37.980  0.00  0.00    -0.244 OA
ENDBRANCH  20  21
ENDBRANCH  19  20
ENDBRANCH  18  19
ENDBRANCH   3  18
TORSDOF 5
