REMARK  Name = Donepezil
REMARK  6 active torsions:
REMARK  status: ('A' for Active; 'I' for Inactive)
REMARK    1  A    between atoms: O_2  and  C_3
REMARK    2  A    between atoms: C_4  and  O_27
REMARK    3  A    between atoms: C_10  and  C_13
REMARK    4  A    between atoms: C_13  and  C_14
REMARK    5  A    between atoms: N_17  and  C_20
REMARK    6  A    between atoms: C_20  and  C_21
REMARK                            x       y       z     vdW  Elec       q    Type
REMARK                         _______ _______ _______ _____ _____    ______ ____
ROOT
ATOM      1  C   UNL     1      42.309  76.725  39.535  0.00  0.00    +0.172 A 
ATOM      2  C   UNL     1      41.769  77.707  38.731  0.00  0.00    +0.172 A 
ATOM      3  C   UNL     1      42.519  78.848  38.549  0.00  0.00    +0.043 A 
ATOM      4  C   UNL     1      43.779  79.042  39.135  0.00  0.00    +0.034 A 
ATOM      5  C   UNL     1      44.308  78.057  39.935  0.00  0.00    -0.016 A 
ATOM      6  C   UNL     1      43.543  76.895  40.119  0.00  0.00    +0.036 A 
ATOM      7  C   UNL     1      45.637  78.451  40.455  0.00  0.00    +0.034 C 
ATOM      8  C   UNL     1      45.901  79.768  39.865  0.00  0.00    +0.066 C 
ATOM      9  C   UNL     1      44.739  80.132  39.092  0.00  0.00    +0.173 C 
ATOM     10  O   UNL     1      44.552  81.207  38.470  0.00  0.00    -0.291 OA
ENDROOT
BRANCH   1  12
ATOM     11  C   UNL     1      42.272  74.381  40.097  0.00  0.00    +0.253 C 
ATOM     12  O   UNL     1      41.583  75.563  39.741  0.00  0.00    -0.468 OA
ENDBRANCH   1  12
BRANCH   2  13
ATOM     13  O   UNL     1      40.522  77.529  38.143  0.00  0.00    -0.468 OA
ATOM     14  C   UNL     1      39.878  78.541  37.395  0.00  0.00    +0.253 C 
ENDBRANCH   2  13
BRANCH   8  15
ATOM     15  C   UNL     1      46.484  80.793  40.777  0.00  0.00    +0.008 C 
BRANCH  15  16
ATOM     16  C   UNL     1      47.381  80.325  41.854  0.00  0.00    +0.003 C 
ATOM     17  C   UNL     1      47.618  81.264  42.983  0.00  0.00    +0.017 C 
ATOM     18  C   UNL     1      48.574  82.383  42.645  0.00  0.00    +0.072 C 
ATOM     19  N   UNL     1      49.775  81.899  42.012  0.00  0.00    -0.269 NA
ATOM     20  C   UNL     1      49.450  81.138  40.812  0.00  0.00    +0.072 C 
ATOM     21  C   UNL     1      48.702  79.910  41.239  0.00  0.00    +0.017 C 
BRANCH  19  22
ATOM     22  C   UNL     1      50.564  83.043  41.602  0.00  0.00    +0.099 C 
BRANCH  22  23
ATOM     23  C   UNL     1      50.522  84.088  42.644  0.00  0.00    -0.006 A 
ATOM     24  C   UNL     1      51.574  84.382  43.484  0.00  0.00    -0.003 A 
ATOM     25  C   UNL     1      51.418  85.377  44.417  0.00  0.00    -0.000 A 
ATOM     26  C   UNL     1      50.248  86.102  44.550  0.00  0.00    -0.000 A 
ATOM     27  C   UNL     1      49.213  85.794  43.704  0.00  0.00    -0.000 A 
ATOM     28  C   UNL     1      49.339  84.810  42.768  0.00  0.00    -0.003 A 
ENDBRANCH  22  23
ENDBRANCH  19  22
ENDBRANCH  15  16
ENDBRANCH   8  15
TORSDOF 6
