REMARK  Name = Dopexamine
REMARK  13 active torsions:
REMARK  status: ('A' for Active; 'I' for Inactive)
REMARK    1  A    between atoms: C_4  and  C_7
REMARK    2  A    between atoms: C_7  and  C_8
REMARK    3  A    between atoms: C_8  and  N_9
REMARK    4  A    between atoms: N_9  and  C_10
REMARK    5  A    between atoms: C_10  and  C_11
REMARK    6  A    between atoms: C_11  and  C_12
REMARK    7  A    between atoms: C_12  and  C_13
REMARK    8  A    between atoms: C_13  and  C_14
REMARK    9  A    between atoms: C_14  and  C_15
REMARK   10  A    between atoms: C_15  and  N_16
REMARK   11  A    between atoms: N_16  and  C_17
REMARK   12  A    between atoms: C_17  and  C_18
REMARK   13  A    between atoms: C_18  and  C_19
REMARK                            x       y       z     vdW  Elec       q    Type
REMARK                         _______ _______ _______ _____ _____    ______ ____
ROOT
ATOM      1  C   UNL     1      51.740  80.959  44.864  0.00  0.00    +0.002 C 
ENDROOT
BRANCH   1   2
ATOM      2  C   UNL     1      52.281  81.417  46.173  0.00  0.00    +0.002 C 
BRANCH   2   3
ATOM      3  C   UNL     1      51.371  81.293  47.347  0.00  0.00    +0.019 C 
BRANCH   3   4
ATOM      4  C   UNL     1      51.427  79.913  47.963  0.00  0.00    +0.089 C 
BRANCH   4   5
ATOM      5  N   UNL     1      51.674  80.025  49.363  0.00  0.00    -0.218 NA
BRANCH   5   6
ATOM      6  C   UNL     1      51.776  78.809  50.078  0.00  0.00    +0.093 C 
BRANCH   6   7
ATOM      7  C   UNL     1      52.060  79.001  51.569  0.00  0.00    +0.045 C 
BRANCH   7  11
ATOM      8  C   UNL     1      48.554  80.584  53.410  0.00  0.00    -0.000 A 
ATOM      9  C   UNL     1      49.532  80.006  54.197  0.00  0.00    -0.000 A 
ATOM     10  C   UNL     1      50.670  79.507  53.550  0.00  0.00    -0.004 A 
ATOM     11  C   UNL     1      50.836  79.575  52.192  0.00  0.00    -0.021 A 
ATOM     12  C   UNL     1      49.844  80.157  51.443  0.00  0.00    -0.004 A 
ATOM     13  C   UNL     1      48.696  80.663  52.062  0.00  0.00    -0.000 A 
ENDBRANCH   7  11
ENDBRANCH   6   7
ENDBRANCH   5   6
ENDBRANCH   4   5
ENDBRANCH   3   4
ENDBRANCH   2   3
ENDBRANCH   1   2
BRANCH   1  14
ATOM     14  C   UNL     1      51.093  82.130  44.103  0.00  0.00    +0.019 C 
BRANCH  14  15
ATOM     15  C   UNL     1      50.435  81.696  42.839  0.00  0.00    +0.089 C 
BRANCH  15  16
ATOM     16  N   UNL     1      49.688  82.674  42.137  0.00  0.00    -0.218 NA
BRANCH  16  17
ATOM     17  C   UNL     1      48.756  82.170  41.149  0.00  0.00    +0.093 C 
BRANCH  17  18
ATOM     18  C   UNL     1      47.590  81.467  41.818  0.00  0.00    +0.045 C 
BRANCH  18  19
ATOM     19  C   UNL     1      46.598  81.110  40.767  0.00  0.00    -0.017 A 
ATOM     20  C   UNL     1      46.366  81.845  39.632  0.00  0.00    +0.041 A 
ATOM     21  C   UNL     1      45.449  81.438  38.695  0.00  0.00    +0.234 A 
ATOM     22  C   UNL     1      44.704  80.284  38.821  0.00  0.00    +0.234 A 
ATOM     23  C   UNL     1      44.942  79.552  39.964  0.00  0.00    +0.045 A 
ATOM     24  C   UNL     1      45.846  79.926  40.916  0.00  0.00    -0.001 A 
ATOM     25  O   UNL     1      43.778  79.885  37.861  0.00  0.00    -0.283 OA
ATOM     26  O   UNL     1      45.247  82.218  37.555  0.00  0.00    -0.283 OA
ENDBRANCH  18  19
ENDBRANCH  17  18
ENDBRANCH  16  17
ENDBRANCH  15  16
ENDBRANCH  14  15
ENDBRANCH   1  14
TORSDOF 13
