REMARK  Name = Doripenem
REMARK  7 active torsions:
REMARK  status: ('A' for Active; 'I' for Inactive)
REMARK    1  A    between atoms: C_4  and  C_25
REMARK    2  A    between atoms: C_8  and  C_22
REMARK    3  A    between atoms: C_9  and  S_10
REMARK    4  A    between atoms: S_10  and  C_11
REMARK    5  A    between atoms: C_13  and  C_16
REMARK    6  A    between atoms: C_16  and  N_17
REMARK    7  A    between atoms: N_17  and  S_18
REMARK                            x       y       z     vdW  Elec       q    Type
REMARK                         _______ _______ _______ _____ _____    ______ ____
ROOT
ATOM      1  C   UNL     1      47.053  79.116  42.630  0.00  0.00    +0.007 C 
ATOM      2  C   UNL     1      46.850  80.449  41.981  0.00  0.00    +0.049 C 
ATOM      3  C   UNL     1      48.057  81.007  41.343  0.00  0.00    +0.096 C 
ATOM      4  C   UNL     1      48.708  82.181  42.002  0.00  0.00    +0.126 C 
ATOM      5  C   UNL     1      48.419  82.882  40.742  0.00  0.00    +0.233 C 
ATOM      6  O   UNL     1      48.900  83.908  40.192  0.00  0.00    -0.274 OA
ATOM      7  N   UNL     1      47.414  81.955  40.414  0.00  0.00    -0.254 N 
ATOM      8  C   UNL     1      46.279  81.193  39.912  0.00  0.00    +0.136 C 
ATOM      9  C   UNL     1      45.898  80.287  40.775  0.00  0.00    +0.024 C 
ENDROOT
BRANCH   8  10
ATOM     10  C   UNL     1      45.718  81.574  38.599  0.00  0.00    +0.401 C 
ATOM     11  O   UNL     1      44.994  80.852  37.894  0.00  0.00    -0.239 OA
ATOM     12  O   UNL     1      45.983  82.835  38.045  0.00  0.00    -0.239 OA
ENDBRANCH   8  10
BRANCH   4  13
ATOM     13  C   UNL     1      50.169  81.909  42.286  0.00  0.00    +0.162 C 
ATOM     14  C   UNL     1      50.387  81.422  43.691  0.00  0.00    +0.036 C 
ATOM     15  O   UNL     1      50.731  81.051  41.369  0.00  0.00    -0.223 OA
ENDBRANCH   4  13
BRANCH   9  16
ATOM     16  S   UNL     1      44.631  79.116  40.737  0.00  0.00    -0.116 S 
BRANCH  16  17
ATOM     17  C   UNL     1      44.077  78.268  39.338  0.00  0.00    +0.070 C 
ATOM     18  C   UNL     1      42.648  77.748  39.492  0.00  0.00    +0.031 C 
ATOM     19  C   UNL     1      42.200  77.566  38.075  0.00  0.00    +0.093 C 
ATOM     20  N   UNL     1      42.768  78.673  37.380  0.00  0.00    -0.217 NA
ATOM     21  C   UNL     1      43.818  79.259  38.148  0.00  0.00    +0.100 C 
BRANCH  19  22
ATOM     22  C   UNL     1      40.687  77.563  38.056  0.00  0.00    +0.134 C 
BRANCH  22  23
ATOM     23  N   UNL     1      40.222  76.304  38.569  0.00  0.00    -0.063 NA
BRANCH  23  24
ATOM     24  S   UNL     1      38.519  76.111  38.293  0.00  0.00    +0.146 S 
ATOM     25  O   UNL     1      37.752  77.256  38.838  0.00  0.00    -0.137 OA
ATOM     26  O   UNL     1      38.131  74.809  38.961  0.00  0.00    -0.137 OA
ATOM     27  N   UNL     1      38.252  76.002  36.602  0.00  0.00    +0.053 NA
ENDBRANCH  23  24
ENDBRANCH  22  23
ENDBRANCH  19  22
ENDBRANCH  16  17
ENDBRANCH   9  16
TORSDOF 7
