REMARK  Name = Dorzolamide
REMARK  3 active torsions:
REMARK  status: ('A' for Active; 'I' for Inactive)
REMARK    1  A    between atoms: C_2  and  N_3
REMARK    2  A    between atoms: N_3  and  C_4
REMARK    3  A    between atoms: C_13  and  S_15
REMARK                            x       y       z     vdW  Elec       q    Type
REMARK                         _______ _______ _______ _____ _____    ______ ____
ROOT
ATOM      1  C   UNL     1      49.613  81.059  41.602  0.00  0.00    +0.098 C 
ATOM      2  C   UNL     1      49.565  81.225  43.135  0.00  0.00    +0.046 C 
ATOM      3  C   UNL     1      50.023  82.634  43.417  0.00  0.00    +0.136 C 
ATOM      4  S   UNL     1      48.906  83.704  42.556  0.00  0.00    +0.012 S 
ATOM      5  O   UNL     1      48.027  84.386  43.582  0.00  0.00    -0.168 OA
ATOM      6  O   UNL     1      49.637  84.739  41.754  0.00  0.00    -0.168 OA
ATOM      7  C   UNL     1      47.871  82.714  41.567  0.00  0.00    +0.134 A 
ATOM      8  C   UNL     1      48.225  81.452  41.123  0.00  0.00    +0.019 A 
ATOM      9  C   UNL     1      47.334  80.802  40.384  0.00  0.00    +0.026 A 
ATOM     10  C   UNL     1      46.140  81.431  40.121  0.00  0.00    +0.155 A 
ATOM     11  S   UNL     1      46.313  82.923  40.927  0.00  0.00    -0.049 S 
ATOM     12  C   UNL     1      50.027  82.915  44.908  0.00  0.00    +0.026 C 
ENDROOT
BRANCH  10  13
ATOM     13  S   UNL     1      44.751  80.869  39.186  0.00  0.00    +0.099 S 
ATOM     14  O   UNL     1      43.521  80.841  40.013  0.00  0.00    -0.150 OA
ATOM     15  O   UNL     1      44.561  81.733  37.960  0.00  0.00    -0.150 OA
ATOM     16  N   UNL     1      45.066  79.254  38.653  0.00  0.00    +0.040 NA
ENDBRANCH  10  13
BRANCH   1  17
ATOM     17  N   UNL     1      49.951  79.707  41.353  0.00  0.00    -0.215 NA
BRANCH  17  19
ATOM     18  C   UNL     1      51.256  77.729  41.522  0.00  0.00    +0.020 C 
ATOM     19  C   UNL     1      51.152  79.208  41.926  0.00  0.00    +0.089 C 
ENDBRANCH  17  19
ENDBRANCH   1  17
TORSDOF 3
