REMARK  Name = Doxazosin
REMARK  3 active torsions:
REMARK  status: ('A' for Active; 'I' for Inactive)
REMARK    1  A    between atoms: O_2  and  C_3
REMARK    2  A    between atoms: C_4  and  O_32
REMARK    3  A    between atoms: C_19  and  C_21
REMARK                            x       y       z     vdW  Elec       q    Type
REMARK                         _______ _______ _______ _____ _____    ______ ____
ROOT
ATOM      1  C   UNL     1      49.182  82.361  41.644  0.00  0.00    +0.173 A 
ATOM      2  C   UNL     1      48.874  81.251  42.426  0.00  0.00    +0.174 A 
ATOM      3  C   UNL     1      47.813  80.432  42.130  0.00  0.00    +0.059 A 
ATOM      4  C   UNL     1      47.014  80.692  41.033  0.00  0.00    +0.090 A 
ATOM      5  C   UNL     1      47.290  81.787  40.232  0.00  0.00    +0.056 A 
ATOM      6  C   UNL     1      48.366  82.595  40.555  0.00  0.00    +0.044 A 
ATOM      7  C   UNL     1      46.523  82.100  39.116  0.00  0.00    +0.174 A 
ATOM      8  N   UNL     1      45.486  81.266  38.860  0.00  0.00    -0.195 NA
ATOM      9  C   UNL     1      45.194  80.207  39.609  0.00  0.00    +0.221 A 
ATOM     10  N   UNL     1      45.959  79.930  40.687  0.00  0.00    -0.213 NA
ATOM     11  N   UNL     1      44.081  79.331  39.317  0.00  0.00    -0.275 N 
ATOM     12  C   UNL     1      43.350  79.586  38.116  0.00  0.00    +0.115 C 
ATOM     13  C   UNL     1      42.629  78.429  37.518  0.00  0.00    +0.115 C 
ATOM     14  N   UNL     1      42.398  77.354  38.461  0.00  0.00    -0.273 N 
ATOM     15  C   UNL     1      43.504  77.028  39.339  0.00  0.00    +0.115 C 
ATOM     16  C   UNL     1      43.726  78.253  40.199  0.00  0.00    +0.115 C 
ATOM     17  C   UNL     1      41.144  76.704  38.456  0.00  0.00    +0.270 C 
ATOM     18  O   UNL     1      41.082  75.492  38.818  0.00  0.00    -0.271 OA
ATOM     19  N   UNL     1      46.802  83.226  38.290  0.00  0.00    -0.107 NA
ENDROOT
BRANCH  17  20
ATOM     20  C   UNL     1      39.890  77.389  38.042  0.00  0.00    +0.284 C 
ATOM     21  C   UNL     1      39.923  77.728  36.557  0.00  0.00    +0.258 C 
ATOM     22  O   UNL     1      40.364  76.546  35.881  0.00  0.00    -0.468 OA
ATOM     23  C   UNL     1      39.669  75.381  36.218  0.00  0.00    +0.172 A 
ATOM     24  C   UNL     1      39.763  74.271  35.404  0.00  0.00    +0.040 A 
ATOM     25  C   UNL     1      39.082  73.107  35.720  0.00  0.00    +0.003 A 
ATOM     26  C   UNL     1      38.295  73.029  36.853  0.00  0.00    +0.003 A 
ATOM     27  C   UNL     1      38.222  74.152  37.644  0.00  0.00    +0.040 A 
ATOM     28  C   UNL     1      38.884  75.323  37.361  0.00  0.00    +0.173 A 
ATOM     29  O   UNL     1      38.806  76.461  38.169  0.00  0.00    -0.463 OA
ENDBRANCH  17  20
BRANCH   1  31
ATOM     30  C   UNL     1      51.050  83.667  40.880  0.00  0.00    +0.253 C 
ATOM     31  O   UNL     1      50.258  83.186  41.949  0.00  0.00    -0.468 OA
ENDBRANCH   1  31
BRANCH   2  32
ATOM     32  O   UNL     1      49.667  80.990  43.517  0.00  0.00    -0.468 OA
ATOM     33  C   UNL     1      49.222  80.328  44.671  0.00  0.00    +0.253 C 
ENDBRANCH   2  32
TORSDOF 3
