REMARK  Name = Doxapram
REMARK  6 active torsions:
REMARK  status: ('A' for Active; 'I' for Inactive)
REMARK    1  A    between atoms: C_2  and  N_3
REMARK    2  A    between atoms: C_5  and  C_21
REMARK    3  A    between atoms: C_6  and  C_9
REMARK    4  A    between atoms: C_6  and  C_15
REMARK    5  A    between atoms: C_21  and  C_22
REMARK    6  A    between atoms: C_22  and  N_23
REMARK                            x       y       z     vdW  Elec       q    Type
REMARK                         _______ _______ _______ _____ _____    ______ ____
ROOT
ATOM      1  N   UNL     1      49.723  79.578  41.960  0.00  0.00    -0.279 N 
ATOM      2  C   UNL     1      48.573  79.337  42.773  0.00  0.00    +0.095 C 
ATOM      3  C   UNL     1      47.485  80.166  42.084  0.00  0.00    +0.037 C 
ATOM      4  C   UNL     1      48.201  81.328  41.418  0.00  0.00    +0.108 C 
ATOM      5  C   UNL     1      49.495  80.733  41.118  0.00  0.00    +0.232 C 
ATOM      6  O   UNL     1      50.337  81.099  40.281  0.00  0.00    -0.274 OA
ENDROOT
BRANCH   4   7
ATOM      7  C   UNL     1      47.419  81.817  40.251  0.00  0.00    -0.011 A 
ATOM      8  C   UNL     1      47.849  82.671  39.289  0.00  0.00    -0.004 A 
ATOM      9  C   UNL     1      47.004  83.036  38.263  0.00  0.00    -0.000 A 
ATOM     10  C   UNL     1      45.712  82.574  38.153  0.00  0.00    -0.000 A 
ATOM     11  C   UNL     1      45.297  81.708  39.142  0.00  0.00    -0.000 A 
ATOM     12  C   UNL     1      46.110  81.339  40.156  0.00  0.00    -0.004 A 
ENDBRANCH   4   7
BRANCH   4  13
ATOM     13  C   UNL     1      48.457  82.458  42.349  0.00  0.00    -0.011 A 
ATOM     14  C   UNL     1      47.422  83.187  42.889  0.00  0.00    -0.004 A 
ATOM     15  C   UNL     1      47.640  84.247  43.763  0.00  0.00    -0.000 A 
ATOM     16  C   UNL     1      48.894  84.606  44.120  0.00  0.00    -0.000 A 
ATOM     17  C   UNL     1      49.954  83.902  43.602  0.00  0.00    -0.000 A 
ATOM     18  C   UNL     1      49.726  82.839  42.724  0.00  0.00    -0.004 A 
ENDBRANCH   4  13
BRANCH   1  20
ATOM     19  C   UNL     1      51.144  78.068  40.667  0.00  0.00    +0.023 C 
ATOM     20  C   UNL     1      50.938  78.775  41.980  0.00  0.00    +0.093 C 
ENDBRANCH   1  20
BRANCH   3  21
ATOM     21  C   UNL     1      46.811  79.228  41.154  0.00  0.00    +0.020 C 
BRANCH  21  22
ATOM     22  C   UNL     1      46.036  78.125  41.858  0.00  0.00    +0.072 C 
BRANCH  22  23
ATOM     23  N   UNL     1      44.794  77.878  41.186  0.00  0.00    -0.268 NA
ATOM     24  C   UNL     1      44.117  76.673  41.558  0.00  0.00    +0.105 C 
ATOM     25  C   UNL     1      43.307  76.175  40.350  0.00  0.00    +0.159 C 
ATOM     26  O   UNL     1      42.728  77.265  39.671  0.00  0.00    -0.351 OA
ATOM     27  C   UNL     1      43.741  77.902  38.976  0.00  0.00    +0.159 C 
ATOM     28  C   UNL     1      45.038  77.851  39.758  0.00  0.00    +0.105 C 
ENDBRANCH  22  23
ENDBRANCH  21  22
ENDBRANCH   3  21
TORSDOF 6
