REMARK  Name = Doxercalciferol
REMARK  5 active torsions:
REMARK  status: ('A' for Active; 'I' for Inactive)
REMARK    1  A    between atoms: C_2  and  C_4
REMARK    2  A    between atoms: C_4  and  C_6
REMARK    3  A    between atoms: C_7  and  C_8
REMARK    4  A    between atoms: C_8  and  C_10
REMARK    5  A    between atoms: C_19  and  C_20
REMARK                            x       y       z     vdW  Elec       q    Type
REMARK                         _______ _______ _______ _____ _____    ______ ____
ROOT
ATOM      1  C   UNL     1      43.829  78.797  40.194  0.00  0.00    +0.004 C 
ATOM      2  C   UNL     1      43.526  79.549  41.472  0.00  0.00    +0.001 C 
ATOM      3  C   UNL     1      44.865  80.127  41.935  0.00  0.00    +0.004 C 
ATOM      4  C   UNL     1      45.848  79.857  40.828  0.00  0.00    +0.018 C 
ATOM      5  C   UNL     1      45.084  79.348  39.636  0.00  0.00    +0.004 C 
ATOM      6  C   UNL     1      44.771  80.421  38.610  0.00  0.00    +0.001 C 
ATOM      7  C   UNL     1      44.922  81.817  39.106  0.00  0.00    +0.004 C 
ATOM      8  C   UNL     1      46.367  81.998  39.543  0.00  0.00    +0.022 C 
ATOM      9  C   UNL     1      46.730  80.993  40.562  0.00  0.00    -0.045 C 
ATOM     10  C   UNL     1      47.870  81.150  41.237  0.00  0.00    -0.009 C 
ATOM     11  C   UNL     1      45.977  78.348  38.931  0.00  0.00    +0.000 C 
ENDROOT
BRANCH  10  12
ATOM     12  C   UNL     1      48.112  82.301  42.103  0.00  0.00    -0.005 C 
ATOM     13  C   UNL     1      49.200  82.560  42.719  0.00  0.00    -0.021 C 
ATOM     14  C   UNL     1      50.414  81.734  42.694  0.00  0.00    +0.059 C 
ATOM     15  C   UNL     1      51.505  82.587  42.109  0.00  0.00    +0.159 C 
ATOM     16  C   UNL     1      51.757  83.817  42.899  0.00  0.00    +0.071 C 
ATOM     17  C   UNL     1      50.741  84.158  43.932  0.00  0.00    +0.176 C 
ATOM     18  C   UNL     1      49.342  83.777  43.528  0.00  0.00    +0.004 C 
ATOM     19  C   UNL     1      48.351  84.531  43.903  0.00  0.00    -0.002 C 
ATOM     20  O   UNL     1      50.764  85.561  44.109  0.00  0.00    -0.218 OA
ATOM     21  O   UNL     1      52.687  81.833  41.937  0.00  0.00    -0.223 OA
ENDBRANCH  10  12
BRANCH   1  22
ATOM     22  C   UNL     1      43.719  77.327  40.341  0.00  0.00    +0.022 C 
ATOM     23  C   UNL     1      44.212  76.835  41.699  0.00  0.00    +0.005 C 
BRANCH  22  25
ATOM     24  C   UNL     1      41.673  76.417  39.212  0.00  0.00    -0.031 C 
ATOM     25  C   UNL     1      42.282  76.837  40.288  0.00  0.00    -0.031 C 
BRANCH  24  26
ATOM     26  C   UNL     1      40.396  77.052  38.792  0.00  0.00    +0.022 C 
ATOM     27  C   UNL     1      39.222  76.547  39.592  0.00  0.00    +0.005 C 
BRANCH  26  29
ATOM     28  C   UNL     1      38.852  77.567  36.858  0.00  0.00    +0.000 C 
ATOM     29  C   UNL     1      40.123  76.943  37.343  0.00  0.00    +0.004 C 
ATOM     30  C   UNL     1      40.217  75.535  36.811  0.00  0.00    +0.000 C 
ENDBRANCH  26  29
ENDBRANCH  24  26
ENDBRANCH  22  25
ENDBRANCH   1  22
TORSDOF 5
