REMARK  Name = Doxifluridine
REMARK  1 active torsions:
REMARK  status: ('A' for Active; 'I' for Inactive)
REMARK    1  A    between atoms: C_5  and  N_7
REMARK                            x       y       z     vdW  Elec       q    Type
REMARK                         _______ _______ _______ _____ _____    ______ ____
ROOT
ATOM      1  N   UNL     1      45.448  80.649  40.112  0.00  0.00    -0.251 N 
ATOM      2  C   UNL     1      46.375  80.569  41.078  0.00  0.00    +0.117 A 
ATOM      3  C   UNL     1      47.403  81.504  41.102  0.00  0.00    +0.215 A 
ATOM      4  C   UNL     1      47.485  82.504  40.156  0.00  0.00    +0.312 A 
ATOM      5  O   UNL     1      48.421  83.345  40.187  0.00  0.00    -0.263 OA
ATOM      6  N   UNL     1      46.544  82.548  39.214  0.00  0.00    -0.151 NA
ATOM      7  C   UNL     1      45.553  81.646  39.193  0.00  0.00    +0.355 A 
ATOM      8  O   UNL     1      44.692  81.720  38.296  0.00  0.00    -0.244 OA
ATOM      9  F   UNL     1      48.343  81.424  42.079  0.00  0.00    -0.197 F 
ENDROOT
BRANCH   1  14
ATOM     10  C   UNL     1      43.668  77.121  42.224  0.00  0.00    +0.035 C 
ATOM     11  C   UNL     1      44.650  77.981  41.437  0.00  0.00    +0.150 C 
ATOM     12  C   UNL     1      44.891  77.410  40.066  0.00  0.00    +0.214 C 
ATOM     13  C   UNL     1      44.600  78.557  39.133  0.00  0.00    +0.234 C 
ATOM     14  C   UNL     1      44.361  79.706  40.042  0.00  0.00    +0.242 C 
ATOM     15  O   UNL     1      44.118  79.226  41.309  0.00  0.00    -0.333 OA
ATOM     16  O   UNL     1      43.415  78.285  38.422  0.00  0.00    -0.216 OA
ATOM     17  O   UNL     1      44.042  76.335  39.891  0.00  0.00    -0.218 OA
ENDBRANCH   1  14
TORSDOF 1
