REMARK  Name = Doxorubicin
REMARK  5 active torsions:
REMARK  status: ('A' for Active; 'I' for Inactive)
REMARK    1  A    between atoms: C_6  and  O_8
REMARK    2  A    between atoms: O_8  and  C_9
REMARK    3  A    between atoms: C_11  and  C_33
REMARK    4  A    between atoms: C_26  and  O_30
REMARK    5  A    between atoms: C_33  and  C_35
REMARK                            x       y       z     vdW  Elec       q    Type
REMARK                         _______ _______ _______ _____ _____    ______ ____
ROOT
ATOM      1  C   UNL     1      43.539  76.556  40.089  0.00  0.00    +0.146 C 
ATOM      2  C   UNL     1      42.597  76.240  38.940  0.00  0.00    +0.072 C 
ATOM      3  C   UNL     1      41.620  77.423  38.859  0.00  0.00    +0.186 C 
ATOM      4  C   UNL     1      42.390  78.509  38.145  0.00  0.00    +0.067 C 
ATOM      5  C   UNL     1      43.583  78.803  38.979  0.00  0.00    +0.021 A 
ATOM      6  C   UNL     1      44.123  77.906  39.877  0.00  0.00    +0.043 A 
ATOM      7  C   UNL     1      45.236  78.316  40.578  0.00  0.00    +0.197 A 
ATOM      8  C   UNL     1      45.787  79.586  40.381  0.00  0.00    +0.084 A 
ATOM      9  C   UNL     1      45.236  80.462  39.485  0.00  0.00    +0.084 A 
ATOM     10  C   UNL     1      44.138  80.074  38.785  0.00  0.00    +0.195 A 
ATOM     11  O   UNL     1      43.581  80.976  37.871  0.00  0.00    -0.287 OA
ATOM     12  C   UNL     1      45.792  81.805  39.256  0.00  0.00    +0.199 C 
ATOM     13  O   UNL     1      45.257  82.581  38.423  0.00  0.00    -0.286 OA
ATOM     14  C   UNL     1      46.960  82.234  39.992  0.00  0.00    +0.045 A 
ATOM     15  C   UNL     1      47.528  81.360  40.900  0.00  0.00    +0.076 A 
ATOM     16  C   UNL     1      46.971  80.017  41.129  0.00  0.00    +0.202 C 
ATOM     17  O   UNL     1      47.515  79.262  41.958  0.00  0.00    -0.286 OA
ATOM     18  C   UNL     1      48.643  81.793  41.590  0.00  0.00    +0.142 A 
ATOM     19  C   UNL     1      49.182  83.046  41.393  0.00  0.00    +0.037 A 
ATOM     20  C   UNL     1      48.593  83.895  40.480  0.00  0.00    +0.003 A 
ATOM     21  C   UNL     1      47.467  83.485  39.769  0.00  0.00    +0.003 A 
ATOM     22  O   UNL     1      45.868  77.504  41.506  0.00  0.00    -0.287 OA
ATOM     23  O   UNL     1      41.351  77.859  40.149  0.00  0.00    -0.218 OA
ENDROOT
BRANCH  18  24
ATOM     24  O   UNL     1      49.191  80.885  42.501  0.00  0.00    -0.471 OA
ATOM     25  C   UNL     1      50.421  81.224  43.109  0.00  0.00    +0.252 C 
ENDBRANCH  18  24
BRANCH   3  26
ATOM     26  C   UNL     1      40.383  77.046  38.128  0.00  0.00    +0.211 C 
ATOM     27  O   UNL     1      39.758  76.053  38.378  0.00  0.00    -0.291 OA
BRANCH  26  28
ATOM     28  C   UNL     1      39.917  77.955  37.041  0.00  0.00    +0.248 C 
ATOM     29  O   UNL     1      38.888  77.370  36.335  0.00  0.00    -0.212 OA
ENDBRANCH  26  28
ENDBRANCH   3  26
BRANCH   1  30
ATOM     30  O   UNL     1      42.906  76.403  41.313  0.00  0.00    -0.328 OA
BRANCH  30  36
ATOM     31  C   UNL     1      41.860  73.042  44.378  0.00  0.00    +0.035 C 
ATOM     32  C   UNL     1      42.910  73.659  43.494  0.00  0.00    +0.150 C 
ATOM     33  C   UNL     1      43.680  72.624  42.698  0.00  0.00    +0.196 C 
ATOM     34  C   UNL     1      44.859  73.370  42.100  0.00  0.00    +0.130 C 
ATOM     35  C   UNL     1      44.403  74.564  41.286  0.00  0.00    +0.083 C 
ATOM     36  C   UNL     1      43.386  75.359  42.082  0.00  0.00    +0.237 C 
ATOM     37  O   UNL     1      42.364  74.550  42.562  0.00  0.00    -0.330 OA
ATOM     38  N   UNL     1      45.716  72.516  41.330  0.00  0.00    -0.130 NA
ATOM     39  O   UNL     1      42.923  72.139  41.632  0.00  0.00    -0.219 OA
ENDBRANCH  30  36
ENDBRANCH   1  30
TORSDOF 5
