REMARK  Name = Doxofylline
REMARK  2 active torsions:
REMARK  status: ('A' for Active; 'I' for Inactive)
REMARK    1  A    between atoms: N_11  and  C_14
REMARK    2  A    between atoms: C_14  and  C_15
REMARK                            x       y       z     vdW  Elec       q    Type
REMARK                         _______ _______ _______ _____ _____    ______ ____
ROOT
ATOM      1  C   UNL     1      43.285  80.044  38.162  0.00  0.00    +0.137 C 
ATOM      2  N   UNL     1      44.353  79.964  39.145  0.00  0.00    -0.263 N 
ATOM      3  C   UNL     1      45.323  80.882  39.239  0.00  0.00    +0.170 A 
ATOM      4  C   UNL     1      46.332  80.783  40.186  0.00  0.00    +0.153 A 
ATOM      5  C   UNL     1      46.326  79.704  41.051  0.00  0.00    +0.283 A 
ATOM      6  O   UNL     1      47.224  79.584  41.922  0.00  0.00    -0.265 OA
ATOM      7  N   UNL     1      45.340  78.805  40.928  0.00  0.00    -0.245 N 
ATOM      8  C   UNL     1      44.381  78.935  39.998  0.00  0.00    +0.335 A 
ATOM      9  O   UNL     1      43.464  78.056  39.919  0.00  0.00    -0.246 OA
ATOM     10  C   UNL     1      45.355  77.668  41.857  0.00  0.00    +0.138 C 
ATOM     11  N   UNL     1      47.167  81.840  40.057  0.00  0.00    -0.299 N 
ATOM     12  C   UNL     1      46.665  82.585  39.029  0.00  0.00    +0.180 A 
ATOM     13  N   UNL     1      45.560  82.007  38.542  0.00  0.00    -0.206 NA
ENDROOT
BRANCH  11  14
ATOM     14  C   UNL     1      48.337  82.091  40.837  0.00  0.00    +0.169 C 
BRANCH  14  15
ATOM     15  C   UNL     1      48.338  83.392  41.588  0.00  0.00    +0.259 C 
ATOM     16  O   UNL     1      49.326  83.433  42.572  0.00  0.00    -0.326 OA
ATOM     17  C   UNL     1      48.919  84.500  43.396  0.00  0.00    +0.177 C 
ATOM     18  C   UNL     1      47.471  84.740  43.023  0.00  0.00    +0.177 C 
ATOM     19  O   UNL     1      47.169  83.565  42.322  0.00  0.00    -0.326 OA
ENDBRANCH  14  15
ENDBRANCH  11  14
TORSDOF 2
