REMARK  Name = Doxycycline
REMARK  2 active torsions:
REMARK  status: ('A' for Active; 'I' for Inactive)
REMARK    1  A    between atoms: C_6  and  N_29
REMARK    2  A    between atoms: C_9  and  C_26
REMARK                            x       y       z     vdW  Elec       q    Type
REMARK                         _______ _______ _______ _____ _____    ______ ____
ROOT
ATOM      1  C   UNL     1      45.907  76.229  40.029  0.00  0.00    +0.005 C 
ATOM      2  C   UNL     1      45.138  77.423  40.574  0.00  0.00    +0.029 C 
ATOM      3  C   UNL     1      45.801  78.705  40.251  0.00  0.00    +0.063 C 
ATOM      4  C   UNL     1      46.508  79.332  41.479  0.00  0.00    +0.161 C 
ATOM      5  C   UNL     1      47.370  80.440  41.030  0.00  0.00    +0.095 C 
ATOM      6  C   UNL     1      48.001  81.218  42.152  0.00  0.00    +0.126 C 
ATOM      7  C   UNL     1      48.781  82.386  41.565  0.00  0.00    +0.195 C 
ATOM      8  O   UNL     1      49.426  83.113  42.352  0.00  0.00    -0.290 OA
ATOM      9  C   UNL     1      48.778  82.650  40.129  0.00  0.00    +0.130 C 
ATOM     10  C   UNL     1      47.757  82.213  39.416  0.00  0.00    +0.215 C 
ATOM     11  C   UNL     1      46.691  81.482  40.162  0.00  0.00    +0.239 C 
ATOM     12  C   UNL     1      45.629  80.990  39.295  0.00  0.00    +0.207 C 
ATOM     13  O   UNL     1      45.270  81.702  38.304  0.00  0.00    -0.289 OA
ATOM     14  C   UNL     1      44.995  79.712  39.565  0.00  0.00    +0.057 C 
ATOM     15  C   UNL     1      43.732  79.561  39.175  0.00  0.00    +0.197 C 
ATOM     16  C   UNL     1      43.072  78.301  39.445  0.00  0.00    +0.074 A 
ATOM     17  C   UNL     1      43.754  77.308  40.089  0.00  0.00    -0.016 A 
ATOM     18  C   UNL     1      43.088  76.116  40.312  0.00  0.00    -0.004 A 
ATOM     19  C   UNL     1      41.774  75.936  39.896  0.00  0.00    +0.003 A 
ATOM     20  C   UNL     1      41.114  76.957  39.249  0.00  0.00    +0.042 A 
ATOM     21  C   UNL     1      41.761  78.150  39.019  0.00  0.00    +0.198 A 
ATOM     22  O   UNL     1      41.096  79.179  38.367  0.00  0.00    -0.286 OA
ATOM     23  O   UNL     1      43.028  80.575  38.518  0.00  0.00    -0.287 OA
ATOM     24  O   UNL     1      46.071  82.371  41.077  0.00  0.00    -0.210 OA
ATOM     25  O   UNL     1      47.745  82.456  38.063  0.00  0.00    -0.288 OA
ATOM     26  O   UNL     1      47.360  78.310  41.968  0.00  0.00    -0.223 OA
ENDROOT
BRANCH   9  27
ATOM     27  C   UNL     1      49.844  83.368  39.468  0.00  0.00    +0.290 C 
ATOM     28  O   UNL     1      51.005  83.308  39.913  0.00  0.00    -0.266 OA
ATOM     29  N   UNL     1      49.582  84.142  38.315  0.00  0.00    -0.084 NA
ENDBRANCH   9  27
BRANCH   6  30
ATOM     30  N   UNL     1      48.745  80.537  43.119  0.00  0.00    -0.265 NA
ATOM     31  C   UNL     1      49.400  79.325  42.812  0.00  0.00    +0.090 C 
ATOM     32  C   UNL     1      49.354  81.348  44.125  0.00  0.00    +0.090 C 
ENDBRANCH   6  30
TORSDOF 2
