REMARK  Name = Dromostanolone
REMARK  0 active torsions:
REMARK  status: ('A' for Active; 'I' for Inactive)
REMARK                            x       y       z     vdW  Elec       q    Type
REMARK                         _______ _______ _______ _____ _____    ______ ____
ROOT
ATOM      1  C   UNL     1      50.775  85.582  42.656  0.00  0.00    +0.008 C 
ATOM      2  C   UNL     1      50.255  84.196  42.962  0.00  0.00    +0.058 C 
ATOM      3  C   UNL     1      49.224  83.767  41.920  0.00  0.00    +0.007 C 
ATOM      4  C   UNL     1      48.553  82.494  42.394  0.00  0.00    +0.001 C 
ATOM      5  C   UNL     1      49.480  81.508  43.020  0.00  0.00    +0.007 C 
ATOM      6  C   UNL     1      49.202  80.084  42.715  0.00  0.00    +0.000 C 
ATOM      7  C   UNL     1      47.793  79.709  42.490  0.00  0.00    +0.000 C 
ATOM      8  C   UNL     1      46.959  80.764  41.810  0.00  0.00    +0.000 C 
ATOM      9  C   UNL     1      47.885  81.780  41.239  0.00  0.00    +0.000 C 
ATOM     10  C   UNL     1      47.135  82.680  40.326  0.00  0.00    +0.000 C 
ATOM     11  C   UNL     1      46.802  81.848  39.105  0.00  0.00    +0.002 C 
ATOM     12  C   UNL     1      46.231  80.517  39.411  0.00  0.00    +0.028 C 
ATOM     13  C   UNL     1      45.977  80.203  40.824  0.00  0.00    +0.002 C 
ATOM     14  C   UNL     1      44.543  80.598  41.135  0.00  0.00    +0.003 C 
ATOM     15  C   UNL     1      43.913  80.977  39.812  0.00  0.00    +0.033 C 
ATOM     16  C   UNL     1      44.848  80.446  38.746  0.00  0.00    +0.152 C 
ATOM     17  O   UNL     1      44.784  81.328  37.671  0.00  0.00    -0.223 OA
ATOM     18  C   UNL     1      47.031  79.378  38.763  0.00  0.00    +0.003 C 
ATOM     19  C   UNL     1      50.925  81.788  42.578  0.00  0.00    +0.064 C 
ATOM     20  C   UNL     1      51.318  83.171  42.912  0.00  0.00    +0.150 C 
ATOM     21  O   UNL     1      52.460  83.462  43.136  0.00  0.00    -0.296 OA
ATOM     22  C   UNL     1      47.488  82.955  43.402  0.00  0.00    +0.000 C 
ENDROOT
TORSDOF 0
