REMARK  Name = Droperidol
REMARK  6 active torsions:
REMARK  status: ('A' for Active; 'I' for Inactive)
REMARK    1  A    between atoms: N_3  and  C_17
REMARK    2  A    between atoms: C_6  and  N_7
REMARK    3  A    between atoms: C_17  and  C_18
REMARK    4  A    between atoms: C_18  and  C_19
REMARK    5  A    between atoms: C_19  and  C_20
REMARK    6  A    between atoms: C_20  and  C_22
REMARK                            x       y       z     vdW  Elec       q    Type
REMARK                         _______ _______ _______ _____ _____    ______ ____
ROOT
ATOM      1  C   UNL     1      44.046  77.848  38.849  0.00  0.00    +0.061 C 
ATOM      2  C   UNL     1      44.062  79.260  39.452  0.00  0.00    +0.079 C 
ATOM      3  N   UNL     1      44.977  79.192  40.565  0.00  0.00    -0.269 NA
ATOM      4  C   UNL     1      45.159  77.890  41.124  0.00  0.00    +0.100 C 
ATOM      5  C   UNL     1      43.903  77.049  41.056  0.00  0.00    +0.004 C 
ATOM      6  C   UNL     1      43.332  77.028  39.877  0.00  0.00    +0.044 C 
ENDROOT
BRANCH   6   7
ATOM      7  N   UNL     1      42.206  76.263  39.553  0.00  0.00    -0.261 N 
ATOM      8  C   UNL     1      41.211  76.499  38.674  0.00  0.00    +0.086 A 
ATOM      9  C   UNL     1      40.878  77.581  37.893  0.00  0.00    +0.019 A 
ATOM     10  C   UNL     1      39.748  77.574  37.060  0.00  0.00    +0.002 A 
ATOM     11  C   UNL     1      38.922  76.478  36.994  0.00  0.00    +0.002 A 
ATOM     12  C   UNL     1      39.235  75.392  37.766  0.00  0.00    +0.021 A 
ATOM     13  C   UNL     1      40.360  75.402  38.593  0.00  0.00    +0.102 A 
ATOM     14  N   UNL     1      40.865  74.499  39.448  0.00  0.00    -0.191 NA
ATOM     15  C   UNL     1      41.959  74.990  40.028  0.00  0.00    +0.354 A 
ATOM     16  O   UNL     1      42.689  74.423  40.879  0.00  0.00    -0.244 OA
ENDBRANCH   6   7
BRANCH   3  17
ATOM     17  C   UNL     1      46.239  79.808  40.157  0.00  0.00    +0.073 C 
BRANCH  17  18
ATOM     18  C   UNL     1      47.022  80.066  41.426  0.00  0.00    +0.025 C 
BRANCH  18  19
ATOM     19  C   UNL     1      48.218  80.939  41.098  0.00  0.00    +0.071 C 
BRANCH  19  20
ATOM     20  C   UNL     1      47.859  82.309  41.521  0.00  0.00    +0.173 C 
ATOM     21  O   UNL     1      46.703  82.723  41.257  0.00  0.00    -0.291 OA
BRANCH  20  22
ATOM     22  C   UNL     1      48.779  83.178  42.218  0.00  0.00    +0.035 A 
ATOM     23  C   UNL     1      50.152  83.096  42.150  0.00  0.00    +0.005 A 
ATOM     24  C   UNL     1      51.014  83.940  42.819  0.00  0.00    +0.030 A 
ATOM     25  C   UNL     1      50.485  84.924  43.602  0.00  0.00    +0.140 A 
ATOM     26  C   UNL     1      49.124  85.060  43.713  0.00  0.00    +0.030 A 
ATOM     27  C   UNL     1      48.297  84.204  43.033  0.00  0.00    +0.005 A 
ATOM     28  F   UNL     1      51.356  85.754  44.259  0.00  0.00    -0.204 F 
ENDBRANCH  20  22
ENDBRANCH  19  20
ENDBRANCH  18  19
ENDBRANCH  17  18
ENDBRANCH   3  17
TORSDOF 6
