REMARK  Name = Drospirenone
REMARK  0 active torsions:
REMARK  status: ('A' for Active; 'I' for Inactive)
REMARK                            x       y       z     vdW  Elec       q    Type
REMARK                         _______ _______ _______ _____ _____    ______ ____
ROOT
ATOM      1  C   UNL     1      46.949  79.354  39.526  0.00  0.00    +0.004 C 
ATOM      2  C   UNL     1      45.820  79.820  40.373  0.00  0.00    +0.016 C 
ATOM      3  C   UNL     1      45.022  78.602  40.795  0.00  0.00    +0.012 C 
ATOM      4  C   UNL     1      44.563  77.767  39.615  0.00  0.00    +0.069 C 
ATOM      5  C   UNL     1      44.159  78.614  38.477  0.00  0.00    +0.173 C 
ATOM      6  O   UNL     1      43.829  78.102  37.406  0.00  0.00    -0.291 OA
ATOM      7  C   UNL     1      44.159  80.049  38.648  0.00  0.00    +0.029 C 
ATOM      8  C   UNL     1      44.946  80.658  39.550  0.00  0.00    -0.042 C 
ATOM      9  C   UNL     1      44.859  82.129  39.633  0.00  0.00    +0.018 C 
ATOM     10  C   UNL     1      44.289  82.818  40.815  0.00  0.00    +0.004 C 
ATOM     11  C   UNL     1      45.754  82.787  40.559  0.00  0.00    +0.004 C 
ATOM     12  C   UNL     1      46.621  81.966  41.443  0.00  0.00    +0.001 C 
ATOM     13  C   UNL     1      46.196  80.546  41.621  0.00  0.00    +0.003 C 
ATOM     14  C   UNL     1      47.153  79.851  42.521  0.00  0.00    +0.000 C 
ATOM     15  C   UNL     1      48.213  80.750  43.103  0.00  0.00    +0.003 C 
ATOM     16  C   UNL     1      48.996  81.501  42.058  0.00  0.00    +0.034 C 
ATOM     17  C   UNL     1      48.073  82.129  41.062  0.00  0.00    +0.003 C 
ATOM     18  C   UNL     1      48.338  83.622  41.078  0.00  0.00    +0.004 C 
ATOM     19  C   UNL     1      48.030  84.461  42.239  0.00  0.00    +0.004 C 
ATOM     20  C   UNL     1      49.386  83.908  42.049  0.00  0.00    +0.037 C 
ATOM     21  C   UNL     1      49.803  82.600  42.645  0.00  0.00    +0.136 C 
ATOM     22  C   UNL     1      49.786  82.616  44.157  0.00  0.00    +0.052 C 
ATOM     23  C   UNL     1      51.017  83.469  44.454  0.00  0.00    +0.113 C 
ATOM     24  C   UNL     1      51.871  83.248  43.253  0.00  0.00    +0.317 C 
ATOM     25  O   UNL     1      53.021  83.712  43.040  0.00  0.00    -0.250 OA
ATOM     26  O   UNL     1      51.188  82.436  42.388  0.00  0.00    -0.456 OA
ATOM     27  C   UNL     1      49.949  80.507  41.421  0.00  0.00    +0.003 C 
ENDROOT
TORSDOF 0
