REMARK  Name = Drotaverine
REMARK  9 active torsions:
REMARK  status: ('A' for Active; 'I' for Inactive)
REMARK    1  A    between atoms: C_2  and  O_3
REMARK    2  A    between atoms: O_3  and  C_4
REMARK    3  A    between atoms: C_5  and  O_27
REMARK    4  A    between atoms: C_7  and  C_10
REMARK    5  A    between atoms: C_14  and  O_24
REMARK    6  A    between atoms: C_15  and  O_21
REMARK    7  A    between atoms: O_21  and  C_22
REMARK    8  A    between atoms: O_24  and  C_25
REMARK    9  A    between atoms: O_27  and  C_28
REMARK                            x       y       z     vdW  Elec       q    Type
REMARK                         _______ _______ _______ _____ _____    ______ ____
ROOT
ATOM      1  C   UNL     1      45.358  78.943  40.368  0.00  0.00    +0.016 C 
ATOM      2  C   UNL     1      45.745  80.157  40.085  0.00  0.00    +0.065 C 
ATOM      3  C   UNL     1      46.981  80.710  40.618  0.00  0.00    +0.014 A 
ATOM      4  C   UNL     1      47.779  79.981  41.469  0.00  0.00    +0.041 A 
ATOM      5  C   UNL     1      48.958  80.476  41.995  0.00  0.00    +0.172 A 
ATOM      6  C   UNL     1      49.304  81.775  41.614  0.00  0.00    +0.172 A 
ATOM      7  C   UNL     1      48.550  82.538  40.777  0.00  0.00    +0.036 A 
ATOM      8  C   UNL     1      47.379  82.013  40.270  0.00  0.00    -0.016 A 
ATOM      9  C   UNL     1      46.560  82.854  39.361  0.00  0.00    +0.050 C 
ATOM     10  C   UNL     1      45.098  82.453  39.339  0.00  0.00    +0.117 C 
ATOM     11  N   UNL     1      44.993  80.989  39.218  0.00  0.00    -0.237 NA
ENDROOT
BRANCH   1  15
ATOM     12  C   UNL     1      41.840  77.378  38.463  0.00  0.00    +0.172 A 
ATOM     13  C   UNL     1      42.493  76.658  39.481  0.00  0.00    +0.172 A 
ATOM     14  C   UNL     1      43.629  77.171  40.079  0.00  0.00    +0.040 A 
ATOM     15  C   UNL     1      44.153  78.389  39.701  0.00  0.00    +0.004 A 
ATOM     16  C   UNL     1      43.501  79.079  38.705  0.00  0.00    +0.003 A 
ATOM     17  C   UNL     1      42.367  78.592  38.091  0.00  0.00    +0.040 A 
BRANCH  12  18
ATOM     18  O   UNL     1      40.721  76.819  37.909  0.00  0.00    -0.472 OA
BRANCH  18  20
ATOM     19  C   UNL     1      38.642  76.621  36.800  0.00  0.00    +0.051 C 
ATOM     20  C   UNL     1      39.764  77.546  37.176  0.00  0.00    +0.206 C 
ENDBRANCH  18  20
ENDBRANCH  12  18
BRANCH  13  21
ATOM     21  O   UNL     1      41.931  75.440  39.824  0.00  0.00    -0.472 OA
BRANCH  21  22
ATOM     22  C   UNL     1      42.602  74.463  40.550  0.00  0.00    +0.206 C 
ATOM     23  C   UNL     1      42.158  74.282  41.964  0.00  0.00    +0.051 C 
ENDBRANCH  21  22
ENDBRANCH  13  21
ENDBRANCH   1  15
BRANCH   6  24
ATOM     24  O   UNL     1      50.495  82.274  42.147  0.00  0.00    -0.472 OA
BRANCH  24  25
ATOM     25  C   UNL     1      50.826  83.644  41.950  0.00  0.00    +0.206 C 
ATOM     26  C   UNL     1      50.984  84.370  43.267  0.00  0.00    +0.051 C 
ENDBRANCH  24  25
ENDBRANCH   6  24
BRANCH   5  27
ATOM     27  O   UNL     1      49.774  79.761  42.847  0.00  0.00    -0.472 OA
BRANCH  27  28
ATOM     28  C   UNL     1      49.947  78.381  42.667  0.00  0.00    +0.206 C 
ATOM     29  C   UNL     1      51.414  78.086  42.456  0.00  0.00    +0.051 C 
ENDBRANCH  27  28
ENDBRANCH   5  27
TORSDOF 9
