REMARK  Name = Droxidopa
REMARK  3 active torsions:
REMARK  status: ('A' for Active; 'I' for Inactive)
REMARK    1  A    between atoms: C_6  and  C_7
REMARK    2  A    between atoms: C_7  and  C_8
REMARK    3  A    between atoms: C_8  and  C_9
REMARK                            x       y       z     vdW  Elec       q    Type
REMARK                         _______ _______ _______ _____ _____    ______ ____
ROOT
ATOM      1  C   UNK     1      47.133  80.392  41.378  0.00  0.00    +0.002 A 
ATOM      2  C   UNK     1      46.049  79.870  40.702  0.00  0.00    +0.045 A 
ATOM      3  C   UNK     1      45.568  80.520  39.567  0.00  0.00    +0.234 A 
ATOM      4  C   UNK     1      46.159  81.662  39.124  0.00  0.00    +0.234 A 
ATOM      5  C   UNK     1      47.247  82.163  39.823  0.00  0.00    +0.044 A 
ATOM      6  C   UNK     1      47.749  81.547  40.949  0.00  0.00    +0.013 A 
ATOM      7  O   UNK     1      45.666  82.299  37.988  0.00  0.00    -0.283 OA
ATOM      8  O   UNK     1      44.477  79.999  38.883  0.00  0.00    -0.283 OA
ENDROOT
BRANCH   6   9
ATOM      9  C   UNK     1      48.901  82.124  41.646  0.00  0.00    +0.203 C 
ATOM     10  O   UNK     1      48.434  82.831  42.760  0.00  0.00    -0.216 OA
BRANCH   9  11
ATOM     11  C   UNK     1      49.889  81.101  42.135  0.00  0.00    +0.229 C 
ATOM     12  N   UNK     1      50.084  80.089  41.138  0.00  0.00    -0.118 NA
BRANCH  11  13
ATOM     13  C   UNK     1      51.160  81.673  42.577  0.00  0.00    +0.385 C 
ATOM     14  O   UNK     1      52.003  82.025  41.714  0.00  0.00    -0.244 OA
ATOM     15  O   UNK     1      51.489  81.849  43.913  0.00  0.00    -0.244 OA
ENDBRANCH  11  13
ENDBRANCH   9  11
ENDBRANCH   6   9
TORSDOF 3
