REMARK  Name = DU-176b
REMARK  6 active torsions:
REMARK  status: ('A' for Active; 'I' for Inactive)
REMARK    1  A    between atoms: C_5  and  S_8
REMARK    2  A    between atoms: C_20  and  C_22
REMARK    3  A    between atoms: N_24  and  C_25
REMARK    4  A    between atoms: C_27  and  C_44
REMARK    5  A    between atoms: C_30  and  N_31
REMARK    6  A    between atoms: C_32  and  C_34
REMARK                            x       y       z     vdW  Elec       q    Type
REMARK                         _______ _______ _______ _____ _____    ______ ____
ROOT
ATOM      1  C   UNL     1      40.511  76.540  37.962  0.00  0.00    +0.031 C 
ATOM      2  C   UNL     1      41.575  76.675  38.972  0.00  0.00    -0.022 A 
ATOM      3  C   UNL     1      42.869  76.307  38.657  0.00  0.00    -0.003 A 
ATOM      4  C   UNL     1      43.911  76.416  39.579  0.00  0.00    +0.021 A 
ATOM      5  C   UNL     1      43.669  76.898  40.836  0.00  0.00    +0.136 A 
ATOM      6  C   UNL     1      42.378  77.268  41.158  0.00  0.00    +0.021 A 
ATOM      7  C   UNL     1      41.342  77.158  40.237  0.00  0.00    -0.003 A 
ENDROOT
BRANCH   5   8
ATOM      8  S   UNL     1      44.932  77.060  42.040  0.00  0.00    +0.141 S 
ATOM      9  O   UNL     1      44.334  76.908  43.410  0.00  0.00    -0.140 OA
ATOM     10  O   UNL     1      45.932  75.962  41.847  0.00  0.00    -0.140 OA
ATOM     11  O   UNL     1      45.620  78.578  41.910  0.00  0.00    -0.043 OA
ENDBRANCH   5   8
TORSDOF 1
REMARK  Name = DU-176b
REMARK  6 active torsions:
REMARK  status: ('A' for Active; 'I' for Inactive)
REMARK    1  A    between atoms: C_5  and  S_8
REMARK    2  A    between atoms: C_20  and  C_22
REMARK    3  A    between atoms: N_24  and  C_25
REMARK    4  A    between atoms: C_27  and  C_44
REMARK    5  A    between atoms: C_30  and  N_31
REMARK    6  A    between atoms: C_32  and  C_34
REMARK                            x       y       z     vdW  Elec       q    Type
REMARK                         _______ _______ _______ _____ _____    ______ ____
ROOT
ATOM      1  C   UNL     1      43.461  75.534  40.426  0.00  0.00    +0.116 C 
ATOM      2  C   UNL     1      43.304  74.052  40.616  0.00  0.00    +0.033 C 
ATOM      3  C   UNL     1      42.862  73.564  41.933  0.00  0.00    +0.079 C 
ATOM      4  C   UNL     1      42.922  74.642  43.013  0.00  0.00    +0.011 C 
ATOM      5  C   UNL     1      44.198  75.448  42.755  0.00  0.00    +0.024 C 
ATOM      6  C   UNL     1      43.873  76.334  41.584  0.00  0.00    +0.116 C 
ENDROOT
BRANCH   3   7
ATOM      7  C   UNL     1      43.699  72.454  42.443  0.00  0.00    +0.225 C 
ATOM      8  O   UNL     1      44.774  72.191  41.841  0.00  0.00    -0.275 OA
ATOM      9  N   UNL     1      43.382  71.650  43.579  0.00  0.00    -0.276 N 
ATOM     10  C   UNL     1      42.121  71.852  44.260  0.00  0.00    +0.115 C 
ATOM     11  C   UNL     1      44.289  70.650  44.098  0.00  0.00    +0.115 C 
ENDBRANCH   3   7
BRANCH   1  14
ATOM     12  C   UNL     1      41.852  76.335  38.617  0.00  0.00    +0.289 C 
ATOM     13  O   UNL     1      42.703  76.217  37.837  0.00  0.00    -0.266 OA
ATOM     14  N   UNL     1      42.143  76.009  40.000  0.00  0.00    -0.200 NA
BRANCH  12  23
ATOM     15  C   UNL     1      36.494  78.920  34.202  0.00  0.00    +0.090 C 
ATOM     16  N   UNL     1      36.991  77.894  35.062  0.00  0.00    -0.267 NA
ATOM     17  C   UNL     1      38.048  77.115  34.506  0.00  0.00    +0.079 C 
ATOM     18  C   UNL     1      39.363  77.796  34.852  0.00  0.00    +0.063 C 
ATOM     19  C   UNL     1      39.493  77.474  36.362  0.00  0.00    +0.064 A 
ATOM     20  C   UNL     1      38.320  77.675  37.065  0.00  0.00    +0.039 A 
ATOM     21  C   UNL     1      37.068  78.187  36.426  0.00  0.00    +0.107 C 
ATOM     22  S   UNL     1      38.910  77.199  38.552  0.00  0.00    -0.065 S 
ATOM     23  C   UNL     1      40.353  76.783  38.527  0.00  0.00    +0.165 A 
ATOM     24  N   UNL     1      40.473  77.062  36.983  0.00  0.00    -0.238 NA
ENDBRANCH  12  23
ENDBRANCH   1  14
BRANCH   6  25
ATOM     25  N   UNL     1      45.060  77.108  41.267  0.00  0.00    -0.198 NA
ATOM     26  C   UNL     1      45.069  78.485  41.493  0.00  0.00    +0.321 C 
ATOM     27  O   UNL     1      44.007  78.996  41.979  0.00  0.00    -0.263 OA
BRANCH  26  28
ATOM     28  C   UNL     1      46.224  79.361  41.203  0.00  0.00    +0.326 C 
ATOM     29  O   UNL     1      47.215  78.813  40.704  0.00  0.00    -0.263 OA
ATOM     30  N   UNL     1      46.129  80.729  41.506  0.00  0.00    -0.153 NA
ATOM     31  C   UNL     1      47.154  81.672  41.287  0.00  0.00    +0.155 A 
ATOM     32  N   UNL     1      46.887  82.966  41.649  0.00  0.00    -0.226 NA
ATOM     33  C   UNL     1      47.781  83.927  41.483  0.00  0.00    +0.112 A 
ATOM     34  C   UNL     1      49.013  83.661  40.945  0.00  0.00    +0.077 A 
ATOM     35  C   UNL     1      49.320  82.375  40.570  0.00  0.00    +0.016 A 
ATOM     36  C   UNL     1      48.359  81.382  40.754  0.00  0.00    +0.037 A 
ATOM     37 CL   UNL     1      50.214  84.928  40.739  0.00  0.00    -0.081 Cl
ENDBRANCH  26  28
ENDBRANCH   6  25
TORSDOF 5
REMARK  Name = DU-176b
REMARK  6 active torsions:
REMARK  status: ('A' for Active; 'I' for Inactive)
REMARK    1  A    between atoms: C_5  and  S_8
REMARK    2  A    between atoms: C_20  and  C_22
REMARK    3  A    between atoms: N_24  and  C_25
REMARK    4  A    between atoms: C_27  and  C_44
REMARK    5  A    between atoms: C_30  and  N_31
REMARK    6  A    between atoms: C_32  and  C_34
REMARK                            x       y       z     vdW  Elec       q    Type
REMARK                         _______ _______ _______ _____ _____    ______ ____
ROOT
ATOM      1  O   HOH     1      42.833  76.557  40.226  0.00  0.00    +0.000 OA
ENDROOT
TORSDOF 0
