REMARK  Name = Dutasteride
REMARK  4 active torsions:
REMARK  status: ('A' for Active; 'I' for Inactive)
REMARK    1  A    between atoms: C_10  and  C_11
REMARK    2  A    between atoms: N_13  and  C_14
REMARK    3  A    between atoms: C_15  and  C_24
REMARK    4  A    between atoms: C_18  and  C_20
REMARK                            x       y       z     vdW  Elec       q    Type
REMARK                         _______ _______ _______ _____ _____    ______ ____
ROOT
ATOM      1  C   UNL     1      45.867  78.327  38.448  0.00  0.00    +0.000 C 
ATOM      2  C   UNL     1      45.308  79.096  39.630  0.00  0.00    +0.008 C 
ATOM      3  C   UNL     1      45.163  78.236  40.846  0.00  0.00    +0.000 C 
ATOM      4  C   UNL     1      44.329  77.011  40.524  0.00  0.00    +0.000 C 
ATOM      5  C   UNL     1      43.416  77.156  39.367  0.00  0.00    +0.005 C 
ATOM      6  C   UNL     1      42.906  78.554  39.127  0.00  0.00    +0.000 C 
ATOM      7  C   UNL     1      43.896  79.597  39.358  0.00  0.00    +0.000 C 
ATOM      8  C   UNL     1      44.139  80.623  38.312  0.00  0.00    +0.001 C 
ATOM      9  C   UNL     1      45.265  81.412  39.009  0.00  0.00    +0.009 C 
ATOM     10  C   UNL     1      46.069  80.348  39.752  0.00  0.00    +0.079 C 
ATOM     11  C   UNL     1      42.231  78.591  37.771  0.00  0.00    +0.002 C 
ATOM     12  C   UNL     1      41.016  77.695  37.883  0.00  0.00    +0.022 C 
ATOM     13  C   UNL     1      41.369  76.291  38.352  0.00  0.00    +0.099 C 
ATOM     14  C   UNL     1      42.176  76.283  39.625  0.00  0.00    +0.037 C 
ATOM     15  C   UNL     1      41.382  76.749  40.753  0.00  0.00    -0.020 C 
ATOM     16  C   UNL     1      40.066  76.631  40.738  0.00  0.00    +0.055 C 
ATOM     17  C   UNL     1      39.314  76.049  39.635  0.00  0.00    +0.265 C 
ATOM     18  O   UNL     1      38.066  75.931  39.615  0.00  0.00    -0.268 OA
ATOM     19  N   UNL     1      40.110  75.597  38.524  0.00  0.00    -0.203 NA
ATOM     20  C   UNL     1      42.663  74.859  39.833  0.00  0.00    +0.006 C 
ENDROOT
BRANCH  10  21
ATOM     21  C   UNL     1      46.512  80.789  41.060  0.00  0.00    +0.245 C 
ATOM     22  O   UNL     1      46.033  81.790  41.608  0.00  0.00    -0.273 OA
ATOM     23  N   UNL     1      47.518  80.070  41.744  0.00  0.00    -0.179 NA
BRANCH  23  24
ATOM     24  C   UNL     1      48.716  80.742  42.109  0.00  0.00    +0.077 A 
ATOM     25  C   UNL     1      49.951  80.136  42.043  0.00  0.00    +0.087 A 
ATOM     26  C   UNL     1      51.051  80.871  42.418  0.00  0.00    +0.005 A 
ATOM     27  C   UNL     1      50.903  82.178  42.845  0.00  0.00    +0.004 A 
ATOM     28  C   UNL     1      49.662  82.778  42.908  0.00  0.00    +0.073 A 
ATOM     29  C   UNL     1      48.559  82.064  42.540  0.00  0.00    +0.020 A 
BRANCH  28  30
ATOM     30  C   UNL     1      49.483  84.196  43.369  0.00  0.00    +0.419 C 
ATOM     31  F   UNL     1      50.035  85.079  42.468  0.00  0.00    -0.166 F 
ATOM     32  F   UNL     1      48.119  84.462  43.444  0.00  0.00    -0.166 F 
ATOM     33  F   UNL     1      50.003  84.351  44.634  0.00  0.00    -0.166 F 
ENDBRANCH  28  30
BRANCH  25  34
ATOM     34  C   UNL     1      50.055  78.743  41.582  0.00  0.00    +0.420 C 
ATOM     35  F   UNL     1      49.066  77.958  42.138  0.00  0.00    -0.166 F 
ATOM     36  F   UNL     1      51.314  78.204  41.746  0.00  0.00    -0.166 F 
ATOM     37  F   UNL     1      49.815  78.733  40.201  0.00  0.00    -0.166 F 
ENDBRANCH  25  34
ENDBRANCH  23  24
ENDBRANCH  10  21
TORSDOF 4
