REMARK  Name = Dyclonine
REMARK  8 active torsions:
REMARK  status: ('A' for Active; 'I' for Inactive)
REMARK    1  A    between atoms: C_2  and  C_3
REMARK    2  A    between atoms: C_3  and  C_4
REMARK    3  A    between atoms: C_4  and  O_5
REMARK    4  A    between atoms: O_5  and  C_6
REMARK    5  A    between atoms: C_9  and  C_12
REMARK    6  A    between atoms: C_12  and  C_14
REMARK    7  A    between atoms: C_14  and  C_15
REMARK    8  A    between atoms: C_15  and  N_16
REMARK                            x       y       z     vdW  Elec       q    Type
REMARK                         _______ _______ _______ _____ _____    ______ ____
ROOT
ATOM      1  C   UNL     1      47.178  81.287  41.078  0.00  0.00    +0.139 A 
ATOM      2  C   UNL     1      46.290  81.541  40.076  0.00  0.00    +0.037 A 
ATOM      3  C   UNL     1      45.316  80.595  39.727  0.00  0.00    +0.006 A 
ATOM      4  C   UNL     1      45.212  79.382  40.370  0.00  0.00    +0.035 A 
ATOM      5  C   UNL     1      46.106  79.131  41.377  0.00  0.00    +0.006 A 
ATOM      6  C   UNL     1      47.064  80.050  41.728  0.00  0.00    +0.037 A 
ENDROOT
BRANCH   4   7
ATOM      7  C   UNL     1      44.220  78.388  40.025  0.00  0.00    +0.174 C 
ATOM      8  O   UNL     1      44.128  77.297  40.642  0.00  0.00    -0.291 OA
BRANCH   7   9
ATOM      9  C   UNL     1      43.271  78.641  38.915  0.00  0.00    +0.086 C 
BRANCH   9  10
ATOM     10  C   UNL     1      42.625  77.333  38.453  0.00  0.00    +0.080 C 
BRANCH  10  11
ATOM     11  N   UNL     1      41.238  77.326  38.813  0.00  0.00    -0.272 NA
ATOM     12  C   UNL     1      40.357  77.911  37.853  0.00  0.00    +0.072 C 
ATOM     13  C   UNL     1      40.392  77.078  36.609  0.00  0.00    +0.017 C 
ATOM     14  C   UNL     1      40.380  75.612  36.850  0.00  0.00    +0.003 C 
ATOM     15  C   UNL     1      40.181  75.180  38.250  0.00  0.00    +0.017 C 
ATOM     16  C   UNL     1      40.760  76.059  39.300  0.00  0.00    +0.072 C 
ENDBRANCH  10  11
ENDBRANCH   9  10
ENDBRANCH   7   9
ENDBRANCH   4   7
BRANCH   1  17
ATOM     17  O   UNL     1      48.153  82.136  41.483  0.00  0.00    -0.475 OA
BRANCH  17  18
ATOM     18  C   UNL     1      48.934  82.216  42.604  0.00  0.00    +0.205 C 
BRANCH  18  19
ATOM     19  C   UNL     1      50.208  82.992  42.453  0.00  0.00    +0.047 C 
BRANCH  19  21
ATOM     20  C   UNL     1      48.962  84.813  43.506  0.00  0.00    +0.000 C 
ATOM     21  C   UNL     1      49.823  84.462  42.314  0.00  0.00    +0.004 C 
ENDBRANCH  19  21
ENDBRANCH  18  19
ENDBRANCH  17  18
ENDBRANCH   1  17
TORSDOF 8
