REMARK  Name = Dydrogesterone
REMARK  1 active torsions:
REMARK  status: ('A' for Active; 'I' for Inactive)
REMARK    1  A    between atoms: C_2  and  C_4
REMARK                            x       y       z     vdW  Elec       q    Type
REMARK                         _______ _______ _______ _____ _____    ______ ____
ROOT
ATOM      1  C   UNL     1      50.179  83.246  43.341  0.00  0.00    +0.058 C 
ATOM      2  C   UNL     1      51.353  83.044  42.373  0.00  0.00    +0.007 C 
ATOM      3  C   UNL     1      50.721  82.640  41.076  0.00  0.00    +0.001 C 
ATOM      4  C   UNL     1      49.614  81.734  41.531  0.00  0.00    +0.004 C 
ATOM      5  C   UNL     1      49.154  82.289  42.861  0.00  0.00    +0.007 C 
ATOM      6  C   UNL     1      47.779  82.866  42.796  0.00  0.00    +0.000 C 
ATOM      7  C   UNL     1      46.758  81.903  42.239  0.00  0.00    +0.001 C 
ATOM      8  C   UNL     1      47.343  80.887  41.314  0.00  0.00    +0.008 C 
ATOM      9  C   UNL     1      48.502  81.550  40.561  0.00  0.00    +0.022 C 
ATOM     10  C   UNL     1      47.973  82.769  39.950  0.00  0.00    -0.027 C 
ATOM     11  C   UNL     1      46.786  82.726  39.363  0.00  0.00    -0.009 C 
ATOM     12  C   UNL     1      46.051  81.456  39.349  0.00  0.00    -0.020 C 
ATOM     13  C   UNL     1      45.060  81.257  38.497  0.00  0.00    +0.033 C 
ATOM     14  C   UNL     1      44.362  79.982  38.522  0.00  0.00    +0.173 C 
ATOM     15  O   UNL     1      43.834  79.502  37.492  0.00  0.00    -0.291 OA
ATOM     16  C   UNL     1      44.276  79.234  39.798  0.00  0.00    +0.069 C 
ATOM     17  C   UNL     1      45.124  79.809  40.883  0.00  0.00    +0.012 C 
ATOM     18  C   UNL     1      46.394  80.363  40.284  0.00  0.00    +0.020 C 
ATOM     19  C   UNL     1      47.087  79.230  39.552  0.00  0.00    +0.004 C 
ATOM     20  C   UNL     1      49.082  81.126  43.861  0.00  0.00    +0.000 C 
ENDROOT
BRANCH   1  22
ATOM     21  C   UNL     1      48.405  85.092  43.490  0.00  0.00    +0.072 C 
ATOM     22  C   UNL     1      49.816  84.662  43.361  0.00  0.00    +0.151 C 
ATOM     23  O   UNL     1      50.675  85.515  43.275  0.00  0.00    -0.296 OA
ENDBRANCH   1  22
TORSDOF 1
