REMARK  Name = Econazole
REMARK  6 active torsions:
REMARK  status: ('A' for Active; 'I' for Inactive)
REMARK    1  A    between atoms: C_6  and  C_7
REMARK    2  A    between atoms: C_7  and  O_8
REMARK    3  A    between atoms: O_8  and  C_9
REMARK    4  A    between atoms: C_9  and  C_10
REMARK    5  A    between atoms: C_9  and  C_16
REMARK    6  A    between atoms: C_10  and  N_11
REMARK                            x       y       z     vdW  Elec       q    Type
REMARK                         _______ _______ _______ _____ _____    ______ ____
ROOT
ATOM      1  C   UNL     1      47.759  81.744  41.517  0.00  0.00    +0.161 C 
ENDROOT
BRANCH   1   2
ATOM      2  C   UNL     1      48.768  82.589  42.189  0.00  0.00    +0.017 A 
ATOM      3  C   UNL     1      48.486  83.763  42.850  0.00  0.00    +0.057 A 
ATOM      4  C   UNL     1      49.477  84.508  43.467  0.00  0.00    +0.023 A 
ATOM      5  C   UNL     1      50.786  84.069  43.423  0.00  0.00    +0.058 A 
ATOM      6  C   UNL     1      51.097  82.900  42.769  0.00  0.00    +0.011 A 
ATOM      7  C   UNL     1      50.084  82.187  42.167  0.00  0.00    -0.000 A 
ATOM      8 CL   UNL     1      52.001  85.050  44.220  0.00  0.00    -0.082 Cl
ATOM      9 CL   UNL     1      46.839  84.328  42.905  0.00  0.00    -0.082 Cl
ENDBRANCH   1   2
BRANCH   1  10
ATOM     10  O   UNL     1      47.802  80.423  41.944  0.00  0.00    -0.345 OA
BRANCH  10  11
ATOM     11  C   UNL     1      46.562  80.119  42.489  0.00  0.00    +0.169 C 
BRANCH  11  17
ATOM     12  C   UNL     1      44.883  78.249  42.493  0.00  0.00    -0.001 A 
ATOM     13  C   UNL     1      44.407  77.077  41.943  0.00  0.00    +0.011 A 
ATOM     14  C   UNL     1      45.005  76.477  40.854  0.00  0.00    +0.058 A 
ATOM     15  C   UNL     1      46.116  77.104  40.326  0.00  0.00    +0.011 A 
ATOM     16  C   UNL     1      46.597  78.282  40.876  0.00  0.00    -0.001 A 
ATOM     17  C   UNL     1      45.985  78.867  41.967  0.00  0.00    +0.007 A 
ATOM     18 CL   UNL     1      44.375  74.978  40.169  0.00  0.00    -0.082 Cl
ENDBRANCH  11  17
ENDBRANCH  10  11
ENDBRANCH   1  10
BRANCH   1  19
ATOM     19  C   UNL     1      47.847  81.839  40.008  0.00  0.00    +0.142 C 
BRANCH  19  20
ATOM     20  N   UNL     1      46.574  81.740  39.341  0.00  0.00    -0.305 N 
ATOM     21  C   UNL     1      45.703  80.703  39.342  0.00  0.00    +0.098 A 
ATOM     22  C   UNL     1      44.615  81.047  38.569  0.00  0.00    +0.119 A 
ATOM     23  N   UNL     1      44.869  82.287  38.126  0.00  0.00    -0.222 NA
ATOM     24  C   UNL     1      46.054  82.722  38.586  0.00  0.00    +0.179 A 
ENDBRANCH  19  20
ENDBRANCH   1  19
TORSDOF 6
