REMARK  Name = Edoxaban_tosylate
REMARK  6 active torsions:
REMARK  status: ('A' for Active; 'I' for Inactive)
REMARK    1  A    between atoms: C_5  and  S_8
REMARK    2  A    between atoms: C_20  and  C_22
REMARK    3  A    between atoms: N_24  and  C_25
REMARK    4  A    between atoms: C_27  and  C_44
REMARK    5  A    between atoms: C_30  and  N_31
REMARK    6  A    between atoms: C_32  and  C_34
REMARK                            x       y       z     vdW  Elec       q    Type
REMARK                         _______ _______ _______ _____ _____    ______ ____
ROOT
ATOM      1  C   UNL     1      39.942  75.887  39.022  0.00  0.00    +0.031 C 
ATOM      2  C   UNL     1      41.118  76.516  39.679  0.00  0.00    -0.022 A 
ATOM      3  C   UNL     1      41.864  77.408  38.956  0.00  0.00    -0.003 A 
ATOM      4  C   UNL     1      42.953  78.003  39.536  0.00  0.00    +0.021 A 
ATOM      5  C   UNL     1      43.306  77.719  40.828  0.00  0.00    +0.136 A 
ATOM      6  C   UNL     1      42.549  76.815  41.561  0.00  0.00    +0.021 A 
ATOM      7  C   UNL     1      41.456  76.214  40.988  0.00  0.00    -0.003 A 
ENDROOT
BRANCH   5   8
ATOM      8  S   UNL     1      44.700  78.487  41.556  0.00  0.00    +0.141 S 
ATOM      9  O   UNL     1      44.301  79.878  41.954  0.00  0.00    -0.140 OA
ATOM     10  O   UNL     1      45.826  78.576  40.557  0.00  0.00    -0.140 OA
ATOM     11  O   UNL     1      45.189  77.569  42.872  0.00  0.00    -0.043 OA
ENDBRANCH   5   8
TORSDOF 1
REMARK  Name = Edoxaban_tosylate
REMARK  6 active torsions:
REMARK  status: ('A' for Active; 'I' for Inactive)
REMARK    1  A    between atoms: C_5  and  S_8
REMARK    2  A    between atoms: C_20  and  C_22
REMARK    3  A    between atoms: N_24  and  C_25
REMARK    4  A    between atoms: C_27  and  C_44
REMARK    5  A    between atoms: C_30  and  N_31
REMARK    6  A    between atoms: C_32  and  C_34
REMARK                            x       y       z     vdW  Elec       q    Type
REMARK                         _______ _______ _______ _____ _____    ______ ____
ROOT
ATOM      1  C   UNL     1      43.907  74.775  39.967  0.00  0.00    +0.116 C 
ATOM      2  C   UNL     1      43.545  73.718  41.034  0.00  0.00    +0.033 C 
ATOM      3  C   UNL     1      43.505  74.372  42.394  0.00  0.00    +0.079 C 
ATOM      4  C   UNL     1      44.819  74.941  42.814  0.00  0.00    +0.011 C 
ATOM      5  C   UNL     1      45.734  74.951  41.612  0.00  0.00    +0.024 C 
ATOM      6  C   UNL     1      45.111  75.568  40.388  0.00  0.00    +0.116 C 
ENDROOT
BRANCH   3   7
ATOM      7  C   UNL     1      42.945  73.449  43.383  0.00  0.00    +0.225 C 
ATOM      8  O   UNL     1      43.156  73.701  44.649  0.00  0.00    -0.275 OA
ATOM      9  N   UNL     1      42.189  72.293  43.160  0.00  0.00    -0.276 N 
ATOM     10  C   UNL     1      41.696  71.898  41.875  0.00  0.00    +0.115 C 
ATOM     11  C   UNL     1      41.867  71.418  44.287  0.00  0.00    +0.115 C 
ENDBRANCH   3   7
BRANCH   1  14
ATOM     12  C   UNL     1      42.105  75.573  38.496  0.00  0.00    +0.289 C 
ATOM     13  O   UNL     1      42.508  74.860  37.538  0.00  0.00    -0.266 OA
ATOM     14  N   UNL     1      42.744  75.598  39.754  0.00  0.00    -0.200 NA
BRANCH  12  23
ATOM     15  C   UNL     1      36.093  79.761  36.700  0.00  0.00    +0.090 C 
ATOM     16  N   UNL     1      37.519  79.620  36.984  0.00  0.00    -0.267 NA
ATOM     17  C   UNL     1      38.143  79.078  35.828  0.00  0.00    +0.079 C 
ATOM     18  C   UNL     1      38.292  77.569  35.846  0.00  0.00    +0.063 C 
ATOM     19  C   UNL     1      39.198  77.289  37.029  0.00  0.00    +0.064 A 
ATOM     20  C   UNL     1      38.843  77.969  38.166  0.00  0.00    +0.039 A 
ATOM     21  C   UNL     1      37.654  78.897  38.199  0.00  0.00    +0.107 C 
ATOM     22  S   UNL     1      40.039  77.439  39.264  0.00  0.00    -0.065 S 
ATOM     23  C   UNL     1      40.906  76.398  38.224  0.00  0.00    +0.165 A 
ATOM     24  N   UNL     1      40.230  76.514  37.088  0.00  0.00    -0.238 NA
ENDBRANCH  12  23
ENDBRANCH   1  14
BRANCH   6  25
ATOM     25  N   UNL     1      44.819  76.964  40.664  0.00  0.00    -0.198 NA
ATOM     26  C   UNL     1      45.454  78.030  39.992  0.00  0.00    +0.321 C 
ATOM     27  O   UNL     1      46.312  77.766  39.113  0.00  0.00    -0.263 OA
BRANCH  26  28
ATOM     28  C   UNL     1      45.144  79.441  40.286  0.00  0.00    +0.326 C 
ATOM     29  O   UNL     1      44.420  79.753  41.267  0.00  0.00    -0.263 OA
ATOM     30  N   UNL     1      45.646  80.495  39.482  0.00  0.00    -0.153 NA
ATOM     31  C   UNL     1      46.149  81.719  40.023  0.00  0.00    +0.155 A 
ATOM     32  N   UNL     1      45.853  82.026  41.300  0.00  0.00    -0.226 NA
ATOM     33  C   UNL     1      46.255  83.129  41.923  0.00  0.00    +0.112 A 
ATOM     34  C   UNL     1      47.038  84.025  41.197  0.00  0.00    +0.077 A 
ATOM     35  C   UNL     1      47.366  83.752  39.886  0.00  0.00    +0.016 A 
ATOM     36  C   UNL     1      46.916  82.590  39.300  0.00  0.00    +0.037 A 
ATOM     37 CL   UNL     1      47.617  85.508  41.933  0.00  0.00    -0.081 Cl
ENDBRANCH  26  28
ENDBRANCH   6  25
TORSDOF 5
