REMARK  Name = Edrophonium
REMARK  2 active torsions:
REMARK  status: ('A' for Active; 'I' for Inactive)
REMARK    1  A    between atoms: C_2  and  N_3
REMARK    2  A    between atoms: N_3  and  C_6
REMARK                            x       y       z     vdW  Elec       q    Type
REMARK                         _______ _______ _______ _____ _____    ______ ____
ROOT
ATOM      1  C   UNL     1      49.352  82.363  42.606  0.00  0.00    +0.037 A 
ATOM      2  C   UNL     1      50.504  82.851  42.026  0.00  0.00    +0.055 A 
ATOM      3  C   UNL     1      51.709  82.648  42.658  0.00  0.00    +0.197 A 
ATOM      4  C   UNL     1      51.807  81.969  43.861  0.00  0.00    +0.042 A 
ATOM      5  C   UNL     1      50.660  81.476  44.451  0.00  0.00    +0.005 A 
ATOM      6  C   UNL     1      49.447  81.685  43.806  0.00  0.00    +0.013 A 
ATOM      7  O   UNL     1      52.858  83.163  42.029  0.00  0.00    -0.287 OA
ENDROOT
BRANCH   1   8
ATOM      8  N   UNL     1      48.106  82.564  41.968  0.00  0.00    -0.352 NA
ATOM      9  C   UNL     1      47.113  81.802  42.653  0.00  0.00    +0.096 C 
ATOM     10  C   UNL     1      48.216  82.226  40.565  0.00  0.00    +0.096 C 
BRANCH   8  12
ATOM     11  C   UNL     1      47.409  84.401  43.412  0.00  0.00    +0.022 C 
ATOM     12  C   UNL     1      47.729  83.975  42.021  0.00  0.00    +0.076 C 
ENDBRANCH   8  12
ENDBRANCH   1   8
TORSDOF 2
