REMARK  Name = Efavirenz
REMARK  3 active torsions:
REMARK  status: ('A' for Active; 'I' for Inactive)
REMARK    1  A    between atoms: C_3  and  C_4
REMARK    2  A    between atoms: C_5  and  C_6
REMARK    3  A    between atoms: C_6  and  C_18
REMARK                            x       y       z     vdW  Elec       q    Type
REMARK                         _______ _______ _______ _____ _____    ______ ____
ROOT
ATOM      1  C   UNL     1      47.215  81.307  40.596  0.00  0.00    +0.297 C 
ATOM      2  C   UNL     1      46.201  80.250  40.729  0.00  0.00    +0.050 A 
ATOM      3  C   UNL     1      45.246  80.010  39.791  0.00  0.00    +0.077 A 
ATOM      4  C   UNL     1      44.324  78.949  39.920  0.00  0.00    +0.017 A 
ATOM      5  C   UNL     1      44.404  78.148  41.029  0.00  0.00    +0.013 A 
ATOM      6  C   UNL     1      45.356  78.372  41.988  0.00  0.00    +0.058 A 
ATOM      7  C   UNL     1      46.253  79.402  41.862  0.00  0.00    +0.013 A 
ATOM      8 CL   UNL     1      45.460  77.336  43.425  0.00  0.00    -0.082 Cl
ATOM      9  N   UNL     1      45.104  80.879  38.669  0.00  0.00    -0.143 NA
ATOM     10  C   UNL     1      45.997  81.986  38.605  0.00  0.00    +0.427 C 
ATOM     11  O   UNL     1      45.864  82.754  37.597  0.00  0.00    -0.224 OA
ATOM     12  O   UNL     1      46.943  82.198  39.585  0.00  0.00    -0.416 OA
ENDROOT
BRANCH   1  13
ATOM     13  C   UNL     1      48.571  80.632  40.336  0.00  0.00    +0.446 C 
ATOM     14  F   UNL     1      48.506  80.008  39.122  0.00  0.00    -0.165 F 
ATOM     15  F   UNL     1      48.845  79.732  41.333  0.00  0.00    -0.165 F 
ATOM     16  F   UNL     1      49.577  81.590  40.307  0.00  0.00    -0.165 F 
ENDBRANCH   1  13
BRANCH   1  18
ATOM     17  C   UNL     1      47.406  82.680  42.899  0.00  0.00    -0.088 C 
ATOM     18  C   UNL     1      47.311  82.064  41.871  0.00  0.00    -0.040 C 
BRANCH  17  21
ATOM     19  C   UNL     1      47.393  84.918  44.061  0.00  0.00    +0.014 C 
ATOM     20  C   UNL     1      48.764  84.363  44.270  0.00  0.00    +0.014 C 
ATOM     21  C   UNL     1      47.540  83.445  44.140  0.00  0.00    +0.064 C 
ENDBRANCH  17  21
ENDBRANCH   1  18
TORSDOF 3
