REMARK  Name = Efinaconazole
REMARK  5 active torsions:
REMARK  status: ('A' for Active; 'I' for Inactive)
REMARK    1  A    between atoms: C_2  and  C_3
REMARK    2  A    between atoms: C_2  and  N_19
REMARK    3  A    between atoms: C_3  and  C_4
REMARK    4  A    between atoms: C_3  and  C_10
REMARK    5  A    between atoms: C_4  and  N_5
REMARK                            x       y       z     vdW  Elec       q    Type
REMARK                         _______ _______ _______ _____ _____    ______ ____
ROOT
ATOM      1  C   UNL     1      48.116  81.518  41.562  0.00  0.00    +0.183 C 
ATOM      2  O   UNL     1      48.693  81.609  40.295  0.00  0.00    -0.218 OA
ENDROOT
BRANCH   1   3
ATOM      3  C   UNL     1      47.967  82.865  42.099  0.00  0.00    +0.036 A 
ATOM      4  C   UNL     1      48.479  83.999  41.506  0.00  0.00    +0.141 A 
ATOM      5  C   UNL     1      48.313  85.265  42.043  0.00  0.00    +0.059 A 
ATOM      6  C   UNL     1      47.603  85.426  43.231  0.00  0.00    +0.142 A 
ATOM      7  C   UNL     1      47.087  84.321  43.834  0.00  0.00    +0.030 A 
ATOM      8  C   UNL     1      47.272  83.076  43.271  0.00  0.00    +0.003 A 
ATOM      9  F   UNL     1      47.431  86.652  43.768  0.00  0.00    -0.204 F 
ATOM     10  F   UNL     1      49.166  83.874  40.374  0.00  0.00    -0.204 F 
ENDBRANCH   1   3
BRANCH   1  12
ATOM     11  C   UNL     1      49.422  79.397  41.629  0.00  0.00    +0.020 C 
ATOM     12  C   UNL     1      49.014  80.621  42.413  0.00  0.00    +0.092 C 
BRANCH  12  13
ATOM     13  N   UNL     1      50.071  81.301  43.072  0.00  0.00    -0.271 NA
ATOM     14  C   UNL     1      51.285  80.578  42.950  0.00  0.00    +0.077 C 
ATOM     15  C   UNL     1      52.376  81.211  42.161  0.00  0.00    +0.039 C 
ATOM     16  C   UNL     1      52.617  82.569  42.704  0.00  0.00    -0.041 C 
ATOM     17  C   UNL     1      53.829  83.089  42.767  0.00  0.00    -0.009 C 
ATOM     18  C   UNL     1      51.458  83.335  43.176  0.00  0.00    +0.039 C 
ATOM     19  C   UNL     1      50.131  82.703  42.862  0.00  0.00    +0.077 C 
ENDBRANCH  12  13
ENDBRANCH   1  12
BRANCH   1  20
ATOM     20  C   UNL     1      46.803  80.795  41.357  0.00  0.00    +0.165 C 
BRANCH  20  21
ATOM     21  N   UNL     1      46.125  81.253  40.170  0.00  0.00    -0.227 N 
ATOM     22  C   UNL     1      45.078  80.713  39.519  0.00  0.00    +0.197 A 
ATOM     23  N   UNL     1      44.749  81.459  38.444  0.00  0.00    -0.201 NA
ATOM     24  C   UNL     1      45.596  82.480  38.415  0.00  0.00    +0.221 A 
ATOM     25  N   UNL     1      46.414  82.350  39.448  0.00  0.00    -0.145 NA
ENDBRANCH  20  21
ENDBRANCH   1  20
TORSDOF 5
