REMARK  Name = Eicosapentaenoic_acid/docosa-hexaenoic_acid
REMARK  14 active torsions:
REMARK  status: ('A' for Active; 'I' for Inactive)
REMARK    1  A    between atoms: C_2  and  C_3
REMARK    2  A    between atoms: C_4  and  C_5
REMARK    3  A    between atoms: C_5  and  C_6
REMARK    4  A    between atoms: C_7  and  C_8
REMARK    5  A    between atoms: C_8  and  C_9
REMARK    6  A    between atoms: C_10  and  C_11
REMARK    7  A    between atoms: C_11  and  C_12
REMARK    8  A    between atoms: C_13  and  C_14
REMARK    9  A    between atoms: C_14  and  C_15
REMARK   10  A    between atoms: C_16  and  C_17
REMARK   11  A    between atoms: C_17  and  C_18
REMARK   12  A    between atoms: C_19  and  C_20
REMARK   13  A    between atoms: C_20  and  C_21
REMARK   14  A    between atoms: C_21  and  C_22
REMARK                            x       y       z     vdW  Elec       q    Type
REMARK                         _______ _______ _______ _____ _____    ______ ____
ROOT
ATOM      1  C   UNL     1      51.846  81.853  42.765  0.00  0.00    -0.026 C 
ATOM      2  C   UNL     1      51.770  82.251  43.978  0.00  0.00    -0.026 C 
ENDROOT
BRANCH   1   3
ATOM      3  C   UNL     1      50.880  81.550  41.698  0.00  0.00    +0.051 C 
BRANCH   3   5
ATOM      4  C   UNL     1      48.399  81.956  42.002  0.00  0.00    -0.026 C 
ATOM      5  C   UNL     1      49.518  81.349  42.147  0.00  0.00    -0.026 C 
BRANCH   4   6
ATOM      6  C   UNL     1      47.546  82.105  40.829  0.00  0.00    +0.051 C 
BRANCH   6   8
ATOM      7  C   UNL     1      45.370  81.121  40.286  0.00  0.00    -0.026 C 
ATOM      8  C   UNL     1      46.647  80.992  40.576  0.00  0.00    -0.026 C 
BRANCH   7   9
ATOM      9  C   UNL     1      44.781  81.088  38.939  0.00  0.00    +0.051 C 
BRANCH   9  11
ATOM     10  C   UNL     1      42.822  79.791  38.338  0.00  0.00    -0.030 C 
ATOM     11  C   UNL     1      44.040  79.778  38.839  0.00  0.00    -0.026 C 
BRANCH  10  13
ATOM     12  C   UNL     1      40.670  78.800  37.811  0.00  0.00    +0.005 C 
ATOM     13  C   UNL     1      42.086  78.505  38.174  0.00  0.00    +0.026 C 
ENDBRANCH  10  13
ENDBRANCH   9  11
ENDBRANCH   7   9
ENDBRANCH   6   8
ENDBRANCH   4   6
ENDBRANCH   3   5
ENDBRANCH   1   3
BRANCH   2  14
ATOM     14  C   UNL     1      51.079  81.732  45.161  0.00  0.00    +0.051 C 
BRANCH  14  15
ATOM     15  C   UNL     1      51.837  80.570  45.759  0.00  0.00    -0.026 C 
ATOM     16  C   UNL     1      53.041  80.767  46.313  0.00  0.00    -0.026 C 
BRANCH  16  17
ATOM     17  C   UNL     1      53.255  80.519  47.739  0.00  0.00    +0.051 C 
BRANCH  17  18
ATOM     18  C   UNL     1      52.631  79.382  48.376  0.00  0.00    -0.026 C 
ATOM     19  C   UNL     1      53.065  78.475  49.188  0.00  0.00    -0.030 C 
BRANCH  19  20
ATOM     20  C   UNL     1      52.329  77.381  49.840  0.00  0.00    +0.038 C 
BRANCH  20  21
ATOM     21  C   UNL     1      53.200  76.171  50.100  0.00  0.00    +0.119 C 
BRANCH  21  22
ATOM     22  C   UNL     1      53.928  76.199  51.365  0.00  0.00    +0.365 C 
ATOM     23  O   UNL     1      54.723  75.305  51.708  0.00  0.00    -0.246 OA
ATOM     24  O   UNL     1      53.756  77.262  52.271  0.00  0.00    -0.246 OA
ENDBRANCH  21  22
ENDBRANCH  20  21
ENDBRANCH  19  20
ENDBRANCH  17  18
ENDBRANCH  16  17
ENDBRANCH  14  15
ENDBRANCH   2  14
TORSDOF 14
