REMARK  Name = Eletriptan
REMARK  6 active torsions:
REMARK  status: ('A' for Active; 'I' for Inactive)
REMARK    1  A    between atoms: C_6  and  C_7
REMARK    2  A    between atoms: C_7  and  C_8
REMARK    3  A    between atoms: C_14  and  C_17
REMARK    4  A    between atoms: C_17  and  C_18
REMARK    5  A    between atoms: C_18  and  S_19
REMARK    6  A    between atoms: S_19  and  C_22
REMARK                            x       y       z     vdW  Elec       q    Type
REMARK                         _______ _______ _______ _____ _____    ______ ____
ROOT
ATOM      1  C   UNL     1      44.828  79.883  39.480  0.00  0.00    -0.000 A 
ATOM      2  C   UNL     1      44.385  80.529  38.358  0.00  0.00    +0.095 A 
ATOM      3  N   UNL     1      45.167  81.595  38.103  0.00  0.00    -0.244 NA
ATOM      4  C   UNL     1      46.126  81.665  39.044  0.00  0.00    +0.081 A 
ATOM      5  C   UNL     1      45.928  80.612  39.904  0.00  0.00    +0.015 A 
ATOM      6  C   UNL     1      46.804  80.460  40.958  0.00  0.00    -0.003 A 
ATOM      7  C   UNL     1      47.858  81.316  41.174  0.00  0.00    -0.020 A 
ATOM      8  C   UNL     1      48.058  82.380  40.304  0.00  0.00    -0.003 A 
ATOM      9  C   UNL     1      47.180  82.530  39.252  0.00  0.00    +0.019 A 
ENDROOT
BRANCH   1  10
ATOM     10  C   UNL     1      44.322  78.687  40.165  0.00  0.00    +0.044 C 
BRANCH  10  16
ATOM     11  C   UNL     1      42.084  77.717  37.559  0.00  0.00    +0.090 C 
ATOM     12  N   UNL     1      42.403  77.719  38.976  0.00  0.00    -0.272 NA
ATOM     13  C   UNL     1      41.711  76.701  39.671  0.00  0.00    +0.072 C 
ATOM     14  C   UNL     1      42.697  76.126  40.685  0.00  0.00    +0.019 C 
ATOM     15  C   UNL     1      43.991  76.306  39.936  0.00  0.00    +0.018 C 
ATOM     16  C   UNL     1      43.795  77.616  39.229  0.00  0.00    +0.062 C 
ENDBRANCH  10  16
ENDBRANCH   1  10
BRANCH   7  17
ATOM     17  C   UNL     1      48.750  81.090  42.330  0.00  0.00    +0.052 C 
BRANCH  17  18
ATOM     18  C   UNL     1      50.174  80.833  41.938  0.00  0.00    +0.161 C 
BRANCH  18  19
ATOM     19  S   UNL     1      51.190  82.036  42.799  0.00  0.00    +0.009 S 
ATOM     20  O   UNL     1      51.852  81.383  43.995  0.00  0.00    -0.169 OA
ATOM     21  O   UNL     1      52.273  82.582  41.922  0.00  0.00    -0.169 OA
BRANCH  19  22
ATOM     22  C   UNL     1      50.125  83.321  43.307  0.00  0.00    +0.106 A 
ATOM     23  C   UNL     1      49.108  83.767  42.495  0.00  0.00    +0.018 A 
ATOM     24  C   UNL     1      48.326  84.791  43.012  0.00  0.00    +0.001 A 
ATOM     25  C   UNL     1      48.544  85.338  44.262  0.00  0.00    +0.000 A 
ATOM     26  C   UNL     1      49.566  84.874  45.053  0.00  0.00    +0.001 A 
ATOM     27  C   UNL     1      50.368  83.854  44.573  0.00  0.00    +0.018 A 
ENDBRANCH  19  22
ENDBRANCH  18  19
ENDBRANCH  17  18
ENDBRANCH   7  17
TORSDOF 6
