REMARK  Name = Elliptinium_acetate
REMARK  0 active torsions:
REMARK  status: ('A' for Active; 'I' for Inactive)
REMARK                            x       y       z     vdW  Elec       q    Type
REMARK                         _______ _______ _______ _____ _____    ______ ____
ROOT
ATOM      1  C   UNL     1      46.006  77.891  42.452  0.00  0.00    +0.033 C 
ATOM      2  C   UNL     1      46.268  79.134  41.638  0.00  0.00    -0.004 A 
ATOM      3  C   UNL     1      45.409  79.499  40.625  0.00  0.00    +0.000 A 
ATOM      4  C   UNL     1      44.297  78.707  40.369  0.00  0.00    +0.018 A 
ATOM      5  C   UNL     1      43.412  79.031  39.372  0.00  0.00    +0.076 A 
ATOM      6  N   UNL     1      43.652  80.135  38.654  0.00  0.00    -0.323 N 
ATOM      7  C   UNL     1      44.729  80.950  38.863  0.00  0.00    +0.076 A 
ATOM      8  C   UNL     1      45.634  80.637  39.865  0.00  0.00    +0.013 A 
ATOM      9  C   UNL     1      46.746  81.456  40.103  0.00  0.00    -0.019 A 
ATOM     10  C   UNL     1      47.599  81.079  41.123  0.00  0.00    +0.015 A 
ATOM     11  C   UNL     1      47.361  79.929  41.882  0.00  0.00    +0.077 A 
ATOM     12  N   UNL     1      48.322  79.780  42.805  0.00  0.00    -0.246 NA
ATOM     13  C   UNL     1      49.169  80.809  42.655  0.00  0.00    +0.081 A 
ATOM     14  C   UNL     1      48.752  81.645  41.613  0.00  0.00    +0.022 A 
ATOM     15  C   UNL     1      49.502  82.762  41.314  0.00  0.00    +0.044 A 
ATOM     16  C   UNL     1      50.642  83.043  42.032  0.00  0.00    +0.196 A 
ATOM     17  C   UNL     1      51.038  82.199  43.062  0.00  0.00    +0.044 A 
ATOM     18  C   UNL     1      50.308  81.083  43.379  0.00  0.00    +0.022 A 
ATOM     19  O   UNL     1      51.442  84.152  41.781  0.00  0.00    -0.287 OA
ATOM     20  C   UNL     1      47.004  82.658  39.297  0.00  0.00    +0.031 C 
ATOM     21  C   UNL     1      42.720  80.486  37.598  0.00  0.00    +0.131 C 
ENDROOT
TORSDOF 0
REMARK  Name = Elliptinium_acetate
REMARK  0 active torsions:
REMARK  status: ('A' for Active; 'I' for Inactive)
REMARK                            x       y       z     vdW  Elec       q    Type
REMARK                         _______ _______ _______ _____ _____    ______ ____
ROOT
ATOM      1  C   UNL     1      46.234  80.470  40.807  0.00  0.00    +0.126 C 
ATOM      2  C   UNL     1      47.594  81.085  40.777  0.00  0.00    +0.365 C 
ATOM      3  O   UNL     1      47.830  81.920  41.686  0.00  0.00    -0.246 OA
ATOM      4  O   UNL     1      48.488  80.729  39.804  0.00  0.00    -0.246 OA
ENDROOT
TORSDOF 0
