REMARK  Name = Eltrombopag
REMARK  5 active torsions:
REMARK  status: ('A' for Active; 'I' for Inactive)
REMARK    1  A    between atoms: C_5  and  N_8
REMARK    2  A    between atoms: C_11  and  N_15
REMARK    3  A    between atoms: N_16  and  C_17
REMARK    4  A    between atoms: C_21  and  C_24
REMARK    5  A    between atoms: C_26  and  C_30
REMARK                            x       y       z     vdW  Elec       q    Type
REMARK                         _______ _______ _______ _____ _____    ______ ____
ROOT
ATOM      1  N   UNL     1      45.314  79.560  40.148  0.00  0.00    -0.142 NA
ATOM      2  N   UNL     1      45.285  80.699  39.632  0.00  0.00    -0.145 NA
ENDROOT
BRANCH   1   6
ATOM      3  N   UNL     1      42.590  77.401  39.155  0.00  0.00    -0.193 N 
ATOM      4  C   UNL     1      43.282  78.549  39.040  0.00  0.00    +0.301 A 
ATOM      5  O   UNL     1      43.057  79.516  38.255  0.00  0.00    -0.263 OA
ATOM      6  C   UNL     1      44.338  78.547  39.939  0.00  0.00    +0.176 A 
ATOM      7  C   UNL     1      44.250  77.341  40.603  0.00  0.00    +0.103 A 
ATOM      8  N   UNL     1      43.199  76.705  40.100  0.00  0.00    -0.165 NA
ATOM      9  C   UNL     1      45.189  76.879  41.686  0.00  0.00    +0.056 C 
BRANCH   3  14
ATOM     10  C   UNL     1      37.960  76.021  36.075  0.00  0.00    +0.031 C 
ATOM     11  C   UNL     1      39.163  76.397  36.854  0.00  0.00    -0.026 A 
ATOM     12  C   UNL     1      39.462  75.712  38.015  0.00  0.00    -0.024 A 
ATOM     13  C   UNL     1      40.579  76.045  38.758  0.00  0.00    +0.015 A 
ATOM     14  C   UNL     1      41.437  77.062  38.382  0.00  0.00    +0.086 A 
ATOM     15  C   UNL     1      41.132  77.742  37.221  0.00  0.00    +0.019 A 
ATOM     16  C   UNL     1      40.016  77.413  36.475  0.00  0.00    -0.003 A 
ATOM     17  C   UNL     1      38.571  74.609  38.464  0.00  0.00    +0.031 C 
ENDBRANCH   3  14
ENDBRANCH   1   6
BRANCH   2  18
ATOM     18  C   UNL     1      46.320  81.668  39.738  0.00  0.00    +0.142 A 
ATOM     19  C   UNL     1      46.528  82.492  38.651  0.00  0.00    +0.024 A 
ATOM     20  C   UNL     1      47.535  83.454  38.719  0.00  0.00    +0.002 A 
ATOM     21  C   UNL     1      48.315  83.588  39.851  0.00  0.00    +0.003 A 
ATOM     22  C   UNL     1      48.109  82.761  40.944  0.00  0.00    +0.041 A 
ATOM     23  C   UNL     1      47.111  81.822  40.852  0.00  0.00    +0.215 A 
ATOM     24  O   UNL     1      46.889  80.980  41.944  0.00  0.00    -0.285 OA
BRANCH  22  25
ATOM     25  C   UNL     1      48.948  82.922  42.130  0.00  0.00    +0.003 A 
ATOM     26  C   UNL     1      50.297  83.196  42.038  0.00  0.00    +0.007 A 
ATOM     27  C   UNL     1      51.018  83.333  43.186  0.00  0.00    +0.080 A 
ATOM     28  C   UNL     1      50.399  83.199  44.425  0.00  0.00    +0.007 A 
ATOM     29  C   UNL     1      49.055  82.927  44.532  0.00  0.00    +0.000 A 
ATOM     30  C   UNL     1      48.334  82.790  43.359  0.00  0.00    +0.000 A 
BRANCH  27  31
ATOM     31  C   UNL     1      52.429  83.618  43.138  0.00  0.00    +0.388 C 
ATOM     32  O   UNL     1      53.077  83.834  44.190  0.00  0.00    -0.241 OA
ATOM     33  O   UNL     1      53.124  83.666  41.932  0.00  0.00    -0.241 OA
ENDBRANCH  27  31
ENDBRANCH  22  25
ENDBRANCH   2  18
TORSDOF 5
