REMARK  Name = Eluxadoline
REMARK  11 active torsions:
REMARK  status: ('A' for Active; 'I' for Inactive)
REMARK    1  A    between atoms: C_4  and  C_40
REMARK    2  A    between atoms: C_7  and  C_8
REMARK    3  A    between atoms: C_8  and  C_9
REMARK    4  A    between atoms: C_9  and  C_10
REMARK    5  A    between atoms: N_12  and  C_13
REMARK    6  A    between atoms: N_12  and  C_25
REMARK    7  A    between atoms: C_13  and  C_14
REMARK    8  A    between atoms: C_16  and  C_22
REMARK    9  A    between atoms: C_17  and  O_20
REMARK   10  A    between atoms: C_25  and  C_27
REMARK   11  A    between atoms: C_30  and  C_32
REMARK                            x       y       z     vdW  Elec       q    Type
REMARK                         _______ _______ _______ _____ _____    ______ ____
ROOT
ATOM      1  C   UNL     1      46.260  80.274  40.144  0.00  0.00    +0.244 C 
ATOM      2  O   UNL     1      47.206  79.412  39.746  0.00  0.00    -0.273 OA
ATOM      3  N   UNL     1      44.982  79.802  39.896  0.00  0.00    -0.269 N 
ENDROOT
BRANCH   1   4
ATOM      4  C   UNL     1      46.763  81.473  40.733  0.00  0.00    +0.172 C 
ATOM      5  N   UNL     1      47.473  82.345  39.822  0.00  0.00    -0.123 NA
BRANCH   4   6
ATOM      6  C   UNL     1      47.475  81.507  42.026  0.00  0.00    +0.054 C 
BRANCH   6  13
ATOM      7  C   UNL     1      46.328  84.157  42.765  0.00  0.00    +0.031 C 
ATOM      8  C   UNL     1      47.793  83.802  42.847  0.00  0.00    -0.026 A 
ATOM      9  C   UNL     1      48.639  84.838  43.285  0.00  0.00    +0.000 A 
ATOM     10  C   UNL     1      49.989  84.672  43.379  0.00  0.00    +0.056 A 
ATOM     11  C   UNL     1      50.474  83.436  43.022  0.00  0.00    +0.000 A 
ATOM     12  C   UNL     1      49.673  82.395  42.588  0.00  0.00    -0.026 A 
ATOM     13  C   UNL     1      48.294  82.579  42.497  0.00  0.00    -0.028 A 
ATOM     14  C   UNL     1      50.384  81.140  42.235  0.00  0.00    +0.031 C 
BRANCH  10  15
ATOM     15  C   UNL     1      50.864  85.748  43.818  0.00  0.00    +0.284 C 
ATOM     16  O   UNL     1      50.364  86.904  43.906  0.00  0.00    -0.267 OA
ATOM     17  N   UNL     1      52.215  85.548  44.141  0.00  0.00    -0.084 NA
ENDBRANCH  10  15
ENDBRANCH   6  13
ENDBRANCH   4   6
ENDBRANCH   1   4
BRANCH   3  18
ATOM     18  C   UNL     1      44.292  79.413  38.703  0.00  0.00    +0.134 C 
ATOM     19  C   UNL     1      45.088  78.947  37.540  0.00  0.00    +0.030 C 
BRANCH  18  20
ATOM     20  C   UNL     1      43.121  78.524  38.912  0.00  0.00    +0.157 A 
ATOM     21  N   UNL     1      42.695  77.986  40.031  0.00  0.00    -0.226 NA
ATOM     22  C   UNL     1      41.578  77.240  39.790  0.00  0.00    +0.119 A 
ATOM     23  C   UNL     1      41.303  77.324  38.455  0.00  0.00    +0.102 A 
ATOM     24  N   UNL     1      42.253  78.110  37.936  0.00  0.00    -0.227 NA
BRANCH  23  25
ATOM     25  C   UNL     1      40.188  76.689  37.718  0.00  0.00    +0.019 A 
ATOM     26  C   UNL     1      40.001  76.980  36.378  0.00  0.00    +0.002 A 
ATOM     27  C   UNL     1      38.953  76.410  35.659  0.00  0.00    +0.000 A 
ATOM     28  C   UNL     1      38.083  75.541  36.285  0.00  0.00    +0.000 A 
ATOM     29  C   UNL     1      38.256  75.240  37.623  0.00  0.00    +0.000 A 
ATOM     30  C   UNL     1      39.316  75.826  38.318  0.00  0.00    +0.002 A 
ENDBRANCH  23  25
ENDBRANCH  18  20
ENDBRANCH   3  18
BRANCH   3  31
ATOM     31  C   UNL     1      44.117  79.627  41.120  0.00  0.00    +0.121 C 
BRANCH  31  32
ATOM     32  C   UNL     1      44.463  78.397  41.865  0.00  0.00    -0.002 A 
ATOM     33  C   UNL     1      44.539  77.205  41.194  0.00  0.00    +0.007 A 
ATOM     34  C   UNL     1      44.884  76.014  41.821  0.00  0.00    +0.113 A 
ATOM     35  C   UNL     1      45.147  76.085  43.164  0.00  0.00    +0.145 A 
ATOM     36  C   UNL     1      45.078  77.261  43.865  0.00  0.00    +0.037 A 
ATOM     37  C   UNL     1      44.735  78.425  43.213  0.00  0.00    +0.001 A 
BRANCH  34  38
ATOM     38  C   UNL     1      44.959  74.740  41.057  0.00  0.00    +0.391 C 
ATOM     39  O   UNL     1      45.333  73.723  41.700  0.00  0.00    -0.240 OA
ATOM     40  O   UNL     1      44.627  74.723  39.722  0.00  0.00    -0.240 OA
ENDBRANCH  34  38
BRANCH  35  41
ATOM     41  O   UNL     1      45.491  74.900  43.794  0.00  0.00    -0.471 OA
ATOM     42  C   UNL     1      46.768  74.490  44.150  0.00  0.00    +0.252 C 
ENDBRANCH  35  41
ENDBRANCH  31  32
ENDBRANCH   3  31
TORSDOF 11
