REMARK  Name = Elvitegravir/cobicistat/emtricitabine/tenofovir_disoproxil_fumarate
REMARK  2 active torsions:
REMARK  status: ('A' for Active; 'I' for Inactive)
REMARK    1  A    between atoms: C_2  and  N_8
REMARK    2  A    between atoms: C_4  and  C_6
REMARK                            x       y       z     vdW  Elec       q    Type
REMARK                         _______ _______ _______ _____ _____    ______ ____
ROOT
ATOM      1  N   UNL     1      45.503  80.286  39.884  0.00  0.00    -0.253 N 
ATOM      2  C   UNL     1      46.582  80.645  40.605  0.00  0.00    +0.115 A 
ATOM      3  C   UNL     1      47.278  81.811  40.383  0.00  0.00    +0.192 A 
ATOM      4  C   UNL     1      46.826  82.627  39.370  0.00  0.00    +0.203 A 
ATOM      5  N   UNL     1      45.753  82.266  38.655  0.00  0.00    -0.172 NA
ATOM      6  C   UNL     1      45.112  81.127  38.909  0.00  0.00    +0.353 A 
ATOM      7  O   UNL     1      44.099  80.866  38.175  0.00  0.00    -0.244 OA
ATOM      8  N   UNL     1      47.494  83.867  39.067  0.00  0.00    -0.105 NA
ATOM      9  F   UNL     1      48.360  82.169  41.107  0.00  0.00    -0.200 F 
ENDROOT
BRANCH   1  11
ATOM     10  C   UNL     1      44.976  78.055  38.985  0.00  0.00    +0.114 C 
ATOM     11  C   UNL     1      44.752  79.101  40.069  0.00  0.00    +0.220 C 
ATOM     12  O   UNL     1      44.951  78.472  41.291  0.00  0.00    -0.323 OA
ATOM     13  C   UNL     1      43.837  77.638  41.398  0.00  0.00    +0.198 C 
ATOM     14  S   UNL     1      44.054  76.694  39.832  0.00  0.00    -0.105 S 
BRANCH  13  15
ATOM     15  C   UNL     1      43.880  76.740  42.588  0.00  0.00    +0.223 C 
ATOM     16  O   UNL     1      45.112  76.199  42.841  0.00  0.00    -0.217 OA
ENDBRANCH  13  15
ENDBRANCH   1  11
TORSDOF 2
