REMARK  Name = Elvitegravir
REMARK  7 active torsions:
REMARK  status: ('A' for Active; 'I' for Inactive)
REMARK    1  A    between atoms: C_2  and  C_4
REMARK    2  A    between atoms: C_4  and  C_5
REMARK    3  A    between atoms: C_4  and  N_7
REMARK    4  A    between atoms: C_9  and  C_29
REMARK    5  A    between atoms: C_15  and  O_27
REMARK    6  A    between atoms: C_16  and  C_18
REMARK    7  A    between atoms: C_18  and  C_19
REMARK                            x       y       z     vdW  Elec       q    Type
REMARK                         _______ _______ _______ _____ _____    ______ ____
ROOT
ATOM      1  N   UNL     1      47.698  79.855  41.001  0.00  0.00    -0.325 N 
ATOM      2  C   UNL     1      47.779  80.977  40.210  0.00  0.00    +0.086 A 
ATOM      3  C   UNL     1      46.801  81.434  39.385  0.00  0.00    +0.136 A 
ATOM      4  C   UNL     1      45.637  80.713  39.338  0.00  0.00    +0.205 A 
ATOM      5  O   UNL     1      44.701  81.082  38.599  0.00  0.00    -0.286 OA
ATOM      6  C   UNL     1      45.478  79.569  40.105  0.00  0.00    +0.055 A 
ATOM      7  C   UNL     1      46.539  79.169  40.929  0.00  0.00    +0.066 A 
ATOM      8  C   UNL     1      46.373  78.037  41.679  0.00  0.00    +0.054 A 
ATOM      9  C   UNL     1      45.173  77.312  41.612  0.00  0.00    +0.136 A 
ATOM     10  C   UNL     1      44.114  77.666  40.825  0.00  0.00    +0.016 A 
ATOM     11  C   UNL     1      44.320  78.836  40.068  0.00  0.00    +0.004 A 
ENDROOT
BRANCH   3  12
ATOM     12  C   UNL     1      47.011  82.657  38.593  0.00  0.00    +0.392 C 
ATOM     13  O   UNL     1      46.111  83.026  37.803  0.00  0.00    -0.240 OA
ATOM     14  O   UNL     1      48.171  83.400  38.703  0.00  0.00    -0.240 OA
ENDBRANCH   3  12
BRANCH   9  15
ATOM     15  O   UNL     1      45.105  76.194  42.393  0.00  0.00    -0.472 OA
ATOM     16  C   UNL     1      46.223  75.428  42.697  0.00  0.00    +0.252 C 
ENDBRANCH   9  15
BRANCH   1  17
ATOM     17  C   UNL     1      48.779  79.467  41.860  0.00  0.00    +0.118 C 
BRANCH  17  19
ATOM     18  C   UNL     1      49.438  77.875  40.058  0.00  0.00    +0.002 C 
ATOM     19  C   UNL     1      49.945  78.796  41.189  0.00  0.00    +0.023 C 
ATOM     20  C   UNL     1      50.656  77.834  42.137  0.00  0.00    +0.002 C 
ENDBRANCH  17  19
BRANCH  17  21
ATOM     21  C   UNL     1      49.073  80.306  43.044  0.00  0.00    +0.204 C 
ATOM     22  O   UNL     1      47.892  80.855  43.606  0.00  0.00    -0.218 OA
ENDBRANCH  17  21
ENDBRANCH   1  17
BRANCH  10  23
ATOM     23  C   UNL     1      42.814  76.966  40.711  0.00  0.00    +0.058 C 
BRANCH  23  24
ATOM     24  C   UNL     1      42.136  77.024  39.423  0.00  0.00    +0.011 A 
ATOM     25  C   UNL     1      41.235  76.115  38.964  0.00  0.00    +0.147 A 
ATOM     26  C   UNL     1      40.588  76.266  37.722  0.00  0.00    +0.085 A 
ATOM     27  C   UNL     1      40.846  77.339  36.928  0.00  0.00    +0.014 A 
ATOM     28  C   UNL     1      41.753  78.275  37.363  0.00  0.00    +0.001 A 
ATOM     29  C   UNL     1      42.380  78.122  38.576  0.00  0.00    -0.002 A 
ATOM     30 CL   UNL     1      39.433  75.067  37.173  0.00  0.00    -0.080 Cl
ATOM     31  F   UNL     1      40.931  74.989  39.634  0.00  0.00    -0.204 F 
ENDBRANCH  23  24
ENDBRANCH  10  23
TORSDOF 7
