REMARK  Name = Emedastine
REMARK  4 active torsions:
REMARK  status: ('A' for Active; 'I' for Inactive)
REMARK    1  A    between atoms: C_2  and  O_3
REMARK    2  A    between atoms: O_3  and  C_4
REMARK    3  A    between atoms: C_4  and  C_5
REMARK    4  A    between atoms: C_5  and  N_6
REMARK                            x       y       z     vdW  Elec       q    Type
REMARK                         _______ _______ _______ _____ _____    ______ ____
ROOT
ATOM      1  N   UNL     1      46.539  81.275  40.079  0.00  0.00    -0.297 N 
ATOM      2  C   UNL     1      45.617  80.385  39.678  0.00  0.00    +0.080 A 
ATOM      3  C   UNL     1      44.734  80.381  38.609  0.00  0.00    +0.019 A 
ATOM      4  C   UNL     1      43.896  79.298  38.467  0.00  0.00    +0.002 A 
ATOM      5  C   UNL     1      43.951  78.243  39.385  0.00  0.00    +0.002 A 
ATOM      6  C   UNL     1      44.837  78.272  40.437  0.00  0.00    +0.021 A 
ATOM      7  C   UNL     1      45.679  79.353  40.587  0.00  0.00    +0.100 A 
ATOM      8  N   UNL     1      46.628  79.665  41.487  0.00  0.00    -0.214 NA
ATOM      9  C   UNL     1      47.184  80.867  41.190  0.00  0.00    +0.201 A 
ATOM     10  N   UNL     1      48.213  81.559  41.882  0.00  0.00    -0.278 N 
ATOM     11  C   UNL     1      49.103  82.307  41.022  0.00  0.00    +0.095 C 
ATOM     12  C   UNL     1      50.279  81.370  40.713  0.00  0.00    +0.039 C 
ATOM     13  C   UNL     1      51.181  81.426  41.910  0.00  0.00    +0.074 C 
ATOM     14  N   UNL     1      50.585  80.672  42.995  0.00  0.00    -0.270 NA
ATOM     15  C   UNL     1      49.719  81.456  43.819  0.00  0.00    +0.094 C 
ATOM     16  C   UNL     1      48.276  81.451  43.316  0.00  0.00    +0.111 C 
ATOM     17  C   UNL     1      51.605  79.973  43.755  0.00  0.00    +0.090 C 
ENDROOT
BRANCH   1  18
ATOM     18  C   UNL     1      46.778  82.516  39.355  0.00  0.00    +0.141 C 
BRANCH  18  19
ATOM     19  C   UNL     1      46.576  83.710  40.258  0.00  0.00    +0.167 C 
BRANCH  19  20
ATOM     20  O   UNL     1      47.625  84.043  41.058  0.00  0.00    -0.352 OA
BRANCH  20  22
ATOM     21  C   UNL     1      47.312  85.025  43.225  0.00  0.00    +0.035 C 
ATOM     22  C   UNL     1      47.443  85.238  41.725  0.00  0.00    +0.142 C 
ENDBRANCH  20  22
ENDBRANCH  19  20
ENDBRANCH  18  19
ENDBRANCH   1  18
TORSDOF 4
