REMARK  Name = Emetine
REMARK  7 active torsions:
REMARK  status: ('A' for Active; 'I' for Inactive)
REMARK    1  A    between atoms: C_2  and  C_3
REMARK    2  A    between atoms: C_10  and  O_34
REMARK    3  A    between atoms: C_11  and  O_32
REMARK    4  A    between atoms: C_16  and  C_17
REMARK    5  A    between atoms: C_17  and  C_18
REMARK    6  A    between atoms: C_21  and  O_30
REMARK    7  A    between atoms: C_22  and  O_28
REMARK                            x       y       z     vdW  Elec       q    Type
REMARK                         _______ _______ _______ _____ _____    ______ ____
ROOT
ATOM      1  C   UNL     1      46.323  81.883  39.924  0.00  0.00    +0.016 C 
ATOM      2  C   UNL     1      46.271  81.056  38.656  0.00  0.00    +0.072 C 
ATOM      3  N   UNL     1      45.258  80.077  38.619  0.00  0.00    -0.270 NA
ATOM      4  C   UNL     1      44.064  80.350  37.949  0.00  0.00    +0.077 C 
ATOM      5  C   UNL     1      42.837  80.081  38.805  0.00  0.00    +0.043 C 
ATOM      6  C   UNL     1      42.965  78.662  39.298  0.00  0.00    -0.020 A 
ATOM      7  C   UNL     1      41.901  77.802  39.342  0.00  0.00    +0.036 A 
ATOM      8  C   UNL     1      42.048  76.483  39.791  0.00  0.00    +0.172 A 
ATOM      9  C   UNL     1      43.279  76.013  40.204  0.00  0.00    +0.172 A 
ATOM     10  C   UNL     1      44.341  76.898  40.152  0.00  0.00    +0.037 A 
ATOM     11  C   UNL     1      44.197  78.202  39.709  0.00  0.00    -0.008 A 
ATOM     12  C   UNL     1      45.353  79.168  39.668  0.00  0.00    +0.080 C 
ATOM     13  C   UNL     1      45.607  79.714  41.035  0.00  0.00    +0.021 C 
ATOM     14  C   UNL     1      46.016  81.129  41.152  0.00  0.00    +0.005 C 
ENDROOT
BRANCH   1  16
ATOM     15  C   UNL     1      45.282  83.922  40.930  0.00  0.00    +0.000 C 
ATOM     16  C   UNL     1      45.373  83.045  39.689  0.00  0.00    +0.001 C 
ENDBRANCH   1  16
BRANCH   9  17
ATOM     17  O   UNL     1      43.406  74.703  40.646  0.00  0.00    -0.468 OA
ATOM     18  C   UNL     1      44.182  74.357  41.778  0.00  0.00    +0.253 C 
ENDBRANCH   9  17
BRANCH   8  19
ATOM     19  O   UNL     1      40.976  75.612  39.837  0.00  0.00    -0.468 OA
ATOM     20  C   UNL     1      40.452  74.979  38.683  0.00  0.00    +0.253 C 
ENDBRANCH   8  19
BRANCH  14  21
ATOM     21  C   UNL     1      47.180  81.196  42.112  0.00  0.00    +0.022 C 
BRANCH  21  22
ATOM     22  C   UNL     1      48.355  81.887  41.507  0.00  0.00    +0.095 C 
ATOM     23  C   UNL     1      49.636  81.476  42.148  0.00  0.00    -0.007 A 
ATOM     24  C   UNL     1      50.421  80.441  41.688  0.00  0.00    +0.037 A 
ATOM     25  C   UNL     1      51.612  80.061  42.291  0.00  0.00    +0.172 A 
ATOM     26  C   UNL     1      52.014  80.767  43.402  0.00  0.00    +0.172 A 
ATOM     27  C   UNL     1      51.244  81.804  43.876  0.00  0.00    +0.036 A 
ATOM     28  C   UNL     1      50.043  82.175  43.257  0.00  0.00    -0.020 A 
ATOM     29  C   UNL     1      49.218  83.279  43.763  0.00  0.00    +0.045 C 
ATOM     30  C   UNL     1      48.353  83.954  42.770  0.00  0.00    +0.094 C 
ATOM     31  N   UNL     1      48.202  83.324  41.517  0.00  0.00    -0.215 NA
BRANCH  26  32
ATOM     32  O   UNL     1      53.200  80.399  44.011  0.00  0.00    -0.468 OA
ATOM     33  C   UNL     1      54.349  81.216  44.031  0.00  0.00    +0.253 C 
ENDBRANCH  26  32
BRANCH  25  34
ATOM     34  O   UNL     1      52.378  79.009  41.796  0.00  0.00    -0.468 OA
ATOM     35  C   UNL     1      51.721  78.039  41.004  0.00  0.00    +0.253 C 
ENDBRANCH  25  34
ENDBRANCH  21  22
ENDBRANCH  14  21
TORSDOF 7
