REMARK  Name = Empagliflozin
REMARK  6 active torsions:
REMARK  status: ('A' for Active; 'I' for Inactive)
REMARK    1  A    between atoms: C_5  and  O_6
REMARK    2  A    between atoms: O_6  and  C_7
REMARK    3  A    between atoms: C_10  and  C_13
REMARK    4  A    between atoms: C_13  and  C_14
REMARK    5  A    between atoms: C_18  and  C_20
REMARK    6  A    between atoms: C_24  and  C_26
REMARK                            x       y       z     vdW  Elec       q    Type
REMARK                         _______ _______ _______ _____ _____    ______ ____
ROOT
ATOM      1  C   UNL     1      46.793  80.945  40.481  0.00  0.00    -0.007 A 
ATOM      2  C   UNL     1      46.290  81.414  39.303  0.00  0.00    +0.054 A 
ATOM      3  C   UNL     1      46.872  82.566  38.760  0.00  0.00    +0.011 A 
ATOM      4  C   UNL     1      47.914  83.238  39.351  0.00  0.00    -0.001 A 
ATOM      5  C   UNL     1      48.422  82.754  40.551  0.00  0.00    +0.007 A 
ATOM      6  C   UNL     1      47.856  81.629  41.084  0.00  0.00    -0.005 A 
ATOM      7 CL   UNL     1      44.965  80.622  38.445  0.00  0.00    -0.083 Cl
ENDROOT
BRANCH   5   8
ATOM      8  C   UNL     1      49.545  83.451  41.169  0.00  0.00    +0.170 C 
ATOM      9  C   UNL     1      50.852  82.725  41.103  0.00  0.00    +0.216 C 
ATOM     10  C   UNL     1      50.854  81.494  41.934  0.00  0.00    +0.218 C 
ATOM     11  C   UNL     1      50.361  81.763  43.325  0.00  0.00    +0.214 C 
ATOM     12  C   UNL     1      49.149  82.677  43.328  0.00  0.00    +0.181 C 
ATOM     13  O   UNL     1      49.313  83.758  42.510  0.00  0.00    -0.346 OA
ATOM     14  O   UNL     1      49.930  80.543  43.888  0.00  0.00    -0.218 OA
ATOM     15  O   UNL     1      50.249  80.382  41.375  0.00  0.00    -0.217 OA
ATOM     16  O   UNL     1      51.824  83.588  41.659  0.00  0.00    -0.217 OA
BRANCH  12  17
ATOM     17  C   UNL     1      48.981  83.150  44.752  0.00  0.00    +0.214 C 
ATOM     18  O   UNL     1      50.102  83.907  45.115  0.00  0.00    -0.218 OA
ENDBRANCH  12  17
ENDBRANCH   5   8
BRANCH   1  19
ATOM     19  C   UNL     1      46.256  79.743  41.151  0.00  0.00    +0.053 C 
BRANCH  19  23
ATOM     20  C   UNL     1      42.863  78.042  39.147  0.00  0.00    +0.138 A 
ATOM     21  C   UNL     1      43.352  79.319  38.846  0.00  0.00    +0.037 A 
ATOM     22  C   UNL     1      44.441  79.862  39.482  0.00  0.00    -0.001 A 
ATOM     23  C   UNL     1      45.111  79.140  40.471  0.00  0.00    -0.018 A 
ATOM     24  C   UNL     1      44.635  77.889  40.770  0.00  0.00    -0.001 A 
ATOM     25  C   UNL     1      43.523  77.345  40.115  0.00  0.00    +0.037 A 
BRANCH  20  26
ATOM     26  O   UNL     1      41.762  77.580  38.458  0.00  0.00    -0.476 OA
BRANCH  26  31
ATOM     27  C   UNL     1      39.469  77.255  39.153  0.00  0.00    +0.078 C 
ATOM     28  C   UNL     1      38.693  76.946  37.906  0.00  0.00    +0.146 C 
ATOM     29  O   UNL     1      39.529  76.337  37.003  0.00  0.00    -0.350 OA
ATOM     30  C   UNL     1      40.508  75.674  37.737  0.00  0.00    +0.185 C 
ATOM     31  C   UNL     1      40.837  76.633  38.878  0.00  0.00    +0.198 C 
ENDBRANCH  26  31
ENDBRANCH  20  26
ENDBRANCH  19  23
ENDBRANCH   1  19
TORSDOF 6
