REMARK  Name = Emtricitabine
REMARK  2 active torsions:
REMARK  status: ('A' for Active; 'I' for Inactive)
REMARK    1  A    between atoms: C_2  and  N_8
REMARK    2  A    between atoms: C_4  and  C_6
REMARK                            x       y       z     vdW  Elec       q    Type
REMARK                         _______ _______ _______ _____ _____    ______ ____
ROOT
ATOM      1  N   UNL     1      45.376  80.275  39.886  0.00  0.00    -0.253 N 
ATOM      2  C   UNL     1      46.417  80.566  40.683  0.00  0.00    +0.115 A 
ATOM      3  C   UNL     1      47.164  81.735  40.501  0.00  0.00    +0.192 A 
ATOM      4  C   UNL     1      46.834  82.611  39.489  0.00  0.00    +0.203 A 
ATOM      5  N   UNL     1      45.785  82.284  38.712  0.00  0.00    -0.172 NA
ATOM      6  C   UNL     1      45.080  81.150  38.908  0.00  0.00    +0.353 A 
ATOM      7  O   UNL     1      44.111  80.881  38.164  0.00  0.00    -0.244 OA
ATOM      8  N   UNL     1      47.559  83.823  39.251  0.00  0.00    -0.105 NA
ATOM      9  F   UNL     1      48.211  82.041  41.291  0.00  0.00    -0.200 F 
ENDROOT
BRANCH   1  11
ATOM     10  C   UNL     1      45.000  77.978  39.078  0.00  0.00    +0.114 C 
ATOM     11  C   UNL     1      44.615  79.094  40.064  0.00  0.00    +0.220 C 
ATOM     12  O   UNL     1      44.733  78.543  41.337  0.00  0.00    -0.323 OA
ATOM     13  C   UNL     1      43.688  77.601  41.438  0.00  0.00    +0.198 C 
ATOM     14  S   UNL     1      44.010  76.650  39.891  0.00  0.00    -0.105 S 
BRANCH  13  15
ATOM     15  C   UNL     1      43.909  76.651  42.572  0.00  0.00    +0.223 C 
ATOM     16  O   UNL     1      45.272  76.389  42.701  0.00  0.00    -0.217 OA
ENDBRANCH  13  15
ENDBRANCH   1  11
TORSDOF 2
