REMARK  Name = Enalaprilat
REMARK  8 active torsions:
REMARK  status: ('A' for Active; 'I' for Inactive)
REMARK    1  A    between atoms: CA_2  and  C_3
REMARK    2  A    between atoms: CA_2  and  N_13
REMARK    3  A    between atoms: CA_9  and  C_10
REMARK    4  A    between atoms: N_13  and  CA_14
REMARK    5  A    between atoms: CA_14  and  C_15
REMARK    6  A    between atoms: CA_14  and  C_23
REMARK    7  A    between atoms: C_15  and  C_16
REMARK    8  A    between atoms: C_16  and  C_17
REMARK                            x       y       z     vdW  Elec       q    Type
REMARK                         _______ _______ _______ _____ _____    ______ ____
ROOT
ATOM      1  N   UNL     1      45.361  80.368  40.291  0.00  0.00    -0.200 NA
ENDROOT
BRANCH   1   3
ATOM      2  CB  UNL     1      45.678  78.388  39.032  0.00  0.00    +0.029 C 
ATOM      3  CA  UNL     1      45.339  78.981  40.411  0.00  0.00    +0.149 C 
BRANCH   3   4
ATOM      4  C   UNL     1      44.240  78.270  41.015  0.00  0.00    +0.242 C 
ATOM      5  O   UNL     1      43.055  78.578  40.831  0.00  0.00    -0.273 OA
ATOM      6  N   UNL     1      44.481  77.162  41.865  0.00  0.00    -0.270 N 
ATOM      7  CD  UNL     1      45.747  76.482  41.991  0.00  0.00    +0.094 C 
ATOM      8  CG  UNL     1      45.719  75.774  43.328  0.00  0.00    +0.024 C 
ATOM      9  CB  UNL     1      44.410  76.190  43.965  0.00  0.00    +0.033 C 
ATOM     10  CA  UNL     1      43.562  76.484  42.763  0.00  0.00    +0.179 C 
BRANCH  10  11
ATOM     11  C   UNL     1      43.194  75.196  42.133  0.00  0.00    +0.382 C 
ATOM     12  O   UNL     1      43.351  74.975  40.893  0.00  0.00    -0.244 OA
ATOM     13  OXT UNL     1      42.648  74.135  42.861  0.00  0.00    -0.244 OA
ENDBRANCH  10  11
ENDBRANCH   3   4
ENDBRANCH   1   3
BRANCH   1  14
ATOM     14  CA  UNL     1      46.366  81.050  39.590  0.00  0.00    +0.176 C 
BRANCH  14  15
ATOM     15  C   UNL     1      45.870  81.951  38.480  0.00  0.00    +0.380 C 
ATOM     16  O   UNL     1      44.612  81.866  38.293  0.00  0.00    -0.244 OA
ATOM     17  OXT UNL     1      46.628  82.778  37.724  0.00  0.00    -0.244 OA
ENDBRANCH  14  15
BRANCH  14  18
ATOM     18  C   UNL     1      47.044  82.114  40.502  0.00  0.00    +0.034 C 
BRANCH  18  19
ATOM     19  C   UNL     1      48.111  81.534  41.359  0.00  0.00    +0.028 C 
BRANCH  19  20
ATOM     20  C   UNL     1      48.598  82.603  42.252  0.00  0.00    -0.022 A 
ATOM     21  C   UNL     1      47.770  83.566  42.779  0.00  0.00    -0.004 A 
ATOM     22  C   UNL     1      48.264  84.564  43.621  0.00  0.00    -0.000 A 
ATOM     23  C   UNL     1      49.609  84.589  43.934  0.00  0.00    -0.000 A 
ATOM     24  C   UNL     1      50.444  83.632  43.413  0.00  0.00    -0.000 A 
ATOM     25  C   UNL     1      49.934  82.655  42.582  0.00  0.00    -0.004 A 
ENDBRANCH  19  20
ENDBRANCH  18  19
ENDBRANCH  14  18
ENDBRANCH   1  14
TORSDOF 8
