REMARK  Name = Enocitabine
REMARK  22 active torsions:
REMARK  status: ('A' for Active; 'I' for Inactive)
REMARK    1  A    between atoms: C_2  and  C_3
REMARK    2  A    between atoms: C_3  and  C_4
REMARK    3  A    between atoms: C_4  and  C_5
REMARK    4  A    between atoms: C_5  and  C_6
REMARK    5  A    between atoms: C_6  and  C_7
REMARK    6  A    between atoms: C_7  and  C_8
REMARK    7  A    between atoms: C_8  and  C_9
REMARK    8  A    between atoms: C_9  and  C_10
REMARK    9  A    between atoms: C_10  and  C_11
REMARK   10  A    between atoms: C_11  and  C_12
REMARK   11  A    between atoms: C_12  and  C_13
REMARK   12  A    between atoms: C_13  and  C_14
REMARK   13  A    between atoms: C_14  and  C_15
REMARK   14  A    between atoms: C_15  and  C_16
REMARK   15  A    between atoms: C_16  and  C_17
REMARK   16  A    between atoms: C_17  and  C_18
REMARK   17  A    between atoms: C_18  and  C_19
REMARK   18  A    between atoms: C_19  and  C_20
REMARK   19  A    between atoms: C_20  and  C_21
REMARK   20  A    between atoms: C_21  and  C_22
REMARK   21  A    between atoms: N_29  and  C1*_32
REMARK   22  A    between atoms: C4*_35  and  C5*_37
REMARK                            x       y       z     vdW  Elec       q    Type
REMARK                         _______ _______ _______ _____ _____    ______ ____
ROOT
ATOM      1  C   UNL     1      47.013  81.945  41.080  0.00  0.00    +0.010 C 
ENDROOT
BRANCH   1   2
ATOM      2  C   UNL     1      46.657  82.138  39.624  0.00  0.00    +0.087 C 
BRANCH   2   3
ATOM      3  C   UNL     1      45.417  81.370  39.240  0.00  0.00    +0.247 C 
ATOM      4  O   UNL     1      44.672  81.782  38.315  0.00  0.00    -0.273 OA
ATOM      5  N   UNL     1      45.066  80.180  39.904  0.00  0.00    -0.160 NA
ATOM      6  C   UNL     1      44.076  79.321  39.385  0.00  0.00    +0.161 A 
ATOM      7  N   UNL     1      43.246  79.603  38.371  0.00  0.00    -0.175 NA
ATOM      8  C   UNL     1      42.318  78.713  37.952  0.00  0.00    +0.353 A 
ATOM      9  O   UNL     1      41.562  79.030  36.994  0.00  0.00    -0.244 OA
ATOM     10  N   UNL     1      42.158  77.509  38.502  0.00  0.00    -0.254 N 
ATOM     11  C   UNL     1      42.965  77.173  39.523  0.00  0.00    +0.085 A 
ATOM     12  C   UNL     1      43.932  78.067  39.980  0.00  0.00    +0.055 A 
BRANCH  10  13
ATOM     13  C1* UNL     1      41.147  76.629  38.009  0.00  0.00    +0.242 C 
ATOM     14  C2* UNL     1      39.784  76.852  38.606  0.00  0.00    +0.234 C 
ATOM     15  C3* UNL     1      39.066  75.578  38.148  0.00  0.00    +0.216 C 
ATOM     16  C4* UNL     1      40.227  74.628  37.939  0.00  0.00    +0.183 C 
ATOM     17  O4* UNL     1      41.373  75.290  38.384  0.00  0.00    -0.330 OA
ATOM     18  O3* UNL     1      38.519  75.853  36.905  0.00  0.00    -0.218 OA
ATOM     19  O2* UNL     1      39.127  77.936  38.048  0.00  0.00    -0.216 OA
BRANCH  16  20
ATOM     20  C5* UNL     1      39.933  73.365  38.718  0.00  0.00    +0.214 C 
ATOM     21  O5* UNL     1      40.473  73.475  39.982  0.00  0.00    -0.218 OA
ENDBRANCH  16  20
ENDBRANCH  10  13
ENDBRANCH   2   3
ENDBRANCH   1   2
BRANCH   1  22
ATOM     22  C   UNL     1      48.331  82.611  41.320  0.00  0.00    +0.001 C 
BRANCH  22  23
ATOM     23  C   UNL     1      48.387  83.600  42.414  0.00  0.00    +0.000 C 
BRANCH  23  24
ATOM     24  C   UNL     1      48.420  83.062  43.807  0.00  0.00    +0.000 C 
BRANCH  24  25
ATOM     25  C   UNL     1      49.816  82.492  44.089  0.00  0.00    +0.000 C 
BRANCH  25  26
ATOM     26  C   UNL     1      50.388  82.960  45.379  0.00  0.00    +0.000 C 
BRANCH  26  27
ATOM     27  C   UNL     1      50.320  81.920  46.492  0.00  0.00    +0.000 C 
BRANCH  27  28
ATOM     28  C   UNL     1      51.715  81.437  46.845  0.00  0.00    +0.000 C 
BRANCH  28  29
ATOM     29  C   UNL     1      52.218  82.093  48.114  0.00  0.00    +0.000 C 
BRANCH  29  30
ATOM     30  C   UNL     1      53.529  81.514  48.557  0.00  0.00    +0.000 C 
BRANCH  30  31
ATOM     31  C   UNL     1      53.958  82.283  49.847  0.00  0.00    +0.000 C 
BRANCH  31  32
ATOM     32  C   UNL     1      55.171  81.591  50.320  0.00  0.00    +0.000 C 
BRANCH  32  33
ATOM     33  C   UNL     1      56.506  81.995  49.890  0.00  0.00    +0.000 C 
BRANCH  33  34
ATOM     34  C   UNL     1      57.604  82.273  50.821  0.00  0.00    +0.000 C 
BRANCH  34  35
ATOM     35  C   UNL     1      58.105  81.207  51.714  0.00  0.00    +0.000 C 
BRANCH  35  36
ATOM     36  C   UNL     1      58.583  79.962  50.938  0.00  0.00    +0.000 C 
BRANCH  36  37
ATOM     37  C   UNL     1      59.882  79.461  51.475  0.00  0.00    +0.000 C 
BRANCH  37  38
ATOM     38  C   UNL     1      60.278  78.173  50.801  0.00  0.00    +0.000 C 
BRANCH  38  40
ATOM     39  C   UNL     1      61.912  76.367  50.599  0.00  0.00    +0.000 C 
ATOM     40  C   UNL     1      61.599  77.681  51.304  0.00  0.00    +0.000 C 
ENDBRANCH  38  40
ENDBRANCH  37  38
ENDBRANCH  36  37
ENDBRANCH  35  36
ENDBRANCH  34  35
ENDBRANCH  33  34
ENDBRANCH  32  33
ENDBRANCH  31  32
ENDBRANCH  30  31
ENDBRANCH  29  30
ENDBRANCH  28  29
ENDBRANCH  27  28
ENDBRANCH  26  27
ENDBRANCH  25  26
ENDBRANCH  24  25
ENDBRANCH  23  24
ENDBRANCH  22  23
ENDBRANCH   1  22
TORSDOF 22
