REMARK  Name = Enoxacin
REMARK  3 active torsions:
REMARK  status: ('A' for Active; 'I' for Inactive)
REMARK    1  A    between atoms: C_2  and  N_3
REMARK    2  A    between atoms: C_5  and  C_21
REMARK    3  A    between atoms: C_11  and  N_14
REMARK                            x       y       z     vdW  Elec       q    Type
REMARK                         _______ _______ _______ _____ _____    ______ ____
ROOT
ATOM      1  N   UNL     1      45.535  78.785  40.663  0.00  0.00    -0.311 N 
ATOM      2  C   UNL     1      46.361  79.843  40.750  0.00  0.00    +0.087 A 
ATOM      3  C   UNL     1      46.198  80.914  39.874  0.00  0.00    +0.136 A 
ATOM      4  C   UNL     1      45.199  80.889  38.928  0.00  0.00    +0.206 A 
ATOM      5  O   UNL     1      45.004  81.820  38.115  0.00  0.00    -0.286 OA
ATOM      6  C   UNL     1      44.349  79.787  38.848  0.00  0.00    +0.076 A 
ATOM      7  C   UNL     1      43.337  79.727  37.913  0.00  0.00    +0.039 A 
ATOM      8  C   UNL     1      42.522  78.624  37.865  0.00  0.00    +0.172 A 
ATOM      9  C   UNL     1      42.757  77.612  38.772  0.00  0.00    +0.161 A 
ATOM     10  N   UNL     1      43.762  77.696  39.684  0.00  0.00    -0.211 NA
ATOM     11  C   UNL     1      44.563  78.766  39.739  0.00  0.00    +0.148 A 
ATOM     12  F   UNL     1      41.507  78.499  36.971  0.00  0.00    -0.201 F 
ENDROOT
BRANCH   9  13
ATOM     13  N   UNL     1      41.910  76.472  38.720  0.00  0.00    -0.288 N 
ATOM     14  C   UNL     1      40.890  76.296  37.712  0.00  0.00    +0.111 C 
ATOM     15  C   UNL     1      39.652  75.653  38.186  0.00  0.00    +0.110 C 
ATOM     16  N   UNL     1      39.559  75.280  39.529  0.00  0.00    -0.214 NA
ATOM     17  C   UNL     1      40.702  75.037  40.288  0.00  0.00    +0.110 C 
ATOM     18  C   UNL     1      42.020  75.402  39.689  0.00  0.00    +0.111 C 
ENDBRANCH   9  13
BRANCH   3  19
ATOM     19  C   UNL     1      47.070  82.070  39.940  0.00  0.00    +0.392 C 
ATOM     20  O   UNL     1      46.985  82.943  39.057  0.00  0.00    -0.240 OA
ATOM     21  O   UNL     1      47.984  82.202  40.969  0.00  0.00    -0.240 OA
ENDBRANCH   3  19
BRANCH   1  23
ATOM     22  C   UNL     1      44.954  77.799  42.839  0.00  0.00    +0.027 C 
ATOM     23  C   UNL     1      45.697  77.691  41.554  0.00  0.00    +0.108 C 
ENDBRANCH   1  23
TORSDOF 3
