REMARK  Name = Enoximone
REMARK  3 active torsions:
REMARK  status: ('A' for Active; 'I' for Inactive)
REMARK    1  A    between atoms: C_3  and  C_8
REMARK    2  A    between atoms: C_8  and  C_10
REMARK    3  A    between atoms: C_13  and  S_16
REMARK                            x       y       z     vdW  Elec       q    Type
REMARK                         _______ _______ _______ _____ _____    ______ ____
ROOT
ATOM      1  C   UNL     1      45.388  80.768  39.380  0.00  0.00    +0.214 C 
ATOM      2  O   UNL     1      44.944  81.396  38.344  0.00  0.00    -0.285 OA
ENDROOT
BRANCH   1   5
ATOM      3  C   UNL     1      43.052  79.468  37.921  0.00  0.00    +0.054 C 
ATOM      4  C   UNL     1      43.756  78.891  39.076  0.00  0.00    +0.085 A 
ATOM      5  C   UNL     1      44.817  79.491  39.752  0.00  0.00    +0.138 A 
ATOM      6  N   UNL     1      45.138  78.632  40.712  0.00  0.00    -0.186 NA
ATOM      7  C   UNL     1      44.333  77.540  40.663  0.00  0.00    +0.369 A 
ATOM      8  O   UNL     1      44.376  76.543  41.434  0.00  0.00    -0.243 OA
ATOM      9  N   UNL     1      43.473  77.706  39.643  0.00  0.00    -0.194 NA
ENDBRANCH   1   5
BRANCH   1  10
ATOM     10  C   UNL     1      46.455  81.440  40.086  0.00  0.00    +0.041 A 
ATOM     11  C   UNL     1      46.902  80.938  41.307  0.00  0.00    +0.004 A 
ATOM     12  C   UNL     1      47.924  81.498  42.036  0.00  0.00    +0.006 A 
ATOM     13  C   UNL     1      48.558  82.618  41.553  0.00  0.00    +0.025 A 
ATOM     14  C   UNL     1      48.136  83.131  40.352  0.00  0.00    +0.006 A 
ATOM     15  C   UNL     1      47.107  82.559  39.628  0.00  0.00    +0.004 A 
BRANCH  13  16
ATOM     16  S   UNL     1      49.879  83.324  42.516  0.00  0.00    -0.113 S 
ATOM     17  C   UNL     1      49.329  84.749  43.453  0.00  0.00    +0.074 C 
ENDBRANCH  13  16
ENDBRANCH   1  10
TORSDOF 3
