REMARK  Name = Enprostil
REMARK  11 active torsions:
REMARK  status: ('A' for Active; 'I' for Inactive)
REMARK    1  A    between atoms: O_2  and  C_3
REMARK    2  A    between atoms: C_3  and  C_5
REMARK    3  A    between atoms: C_5  and  C_6
REMARK    4  A    between atoms: C_6  and  C_7
REMARK    5  A    between atoms: C_9  and  C_10
REMARK    6  A    between atoms: C_10  and  C_11
REMARK    7  A    between atoms: C_12  and  C_18
REMARK    8  A    between atoms: C_19  and  C_20
REMARK    9  A    between atoms: C_20  and  C_21
REMARK   10  A    between atoms: C_21  and  O_22
REMARK   11  A    between atoms: O_22  and  C_23
REMARK                            x       y       z     vdW  Elec       q    Type
REMARK                         _______ _______ _______ _____ _____    ______ ____
ROOT
ATOM      1  C   UNL     1      42.688  78.213  40.301  0.00  0.00    +0.069 C 
ATOM      2  C   UNL     1      43.994  78.581  39.584  0.00  0.00    +0.060 C 
ATOM      3  C   UNL     1      43.499  78.641  38.135  0.00  0.00    +0.164 C 
ATOM      4  C   UNL     1      42.599  77.424  38.050  0.00  0.00    +0.098 C 
ATOM      5  C   UNL     1      42.219  77.093  39.443  0.00  0.00    +0.154 C 
ATOM      6  O   UNL     1      41.635  76.087  39.782  0.00  0.00    -0.296 OA
ATOM      7  O   UNL     1      42.709  79.767  38.016  0.00  0.00    -0.222 OA
ENDROOT
BRANCH   2   8
ATOM      8  C   UNL     1      44.507  79.880  40.016  0.00  0.00    -0.025 C 
ATOM      9  C   UNL     1      45.451  80.474  39.309  0.00  0.00    +0.005 C 
BRANCH   9  10
ATOM     10  C   UNL     1      45.672  81.961  39.411  0.00  0.00    +0.217 C 
ATOM     11  O   UNL     1      46.520  82.411  38.426  0.00  0.00    -0.214 OA
BRANCH  10  12
ATOM     12  C   UNL     1      46.258  82.323  40.749  0.00  0.00    +0.243 C 
BRANCH  12  13
ATOM     13  O   UNL     1      47.641  82.490  40.702  0.00  0.00    -0.472 OA
BRANCH  13  14
ATOM     14  C   UNL     1      48.410  82.955  41.744  0.00  0.00    +0.139 A 
ATOM     15  C   UNL     1      49.779  82.680  41.785  0.00  0.00    +0.037 A 
ATOM     16  C   UNL     1      50.579  83.131  42.816  0.00  0.00    +0.003 A 
ATOM     17  C   UNL     1      50.041  83.871  43.839  0.00  0.00    +0.000 A 
ATOM     18  C   UNL     1      48.696  84.149  43.812  0.00  0.00    +0.003 A 
ATOM     19  C   UNL     1      47.903  83.699  42.786  0.00  0.00    +0.037 A 
ENDBRANCH  13  14
ENDBRANCH  12  13
ENDBRANCH  10  12
ENDBRANCH   9  10
ENDBRANCH   2   8
BRANCH   1  20
ATOM     20  C   UNL     1      43.033  77.750  41.672  0.00  0.00    +0.042 C 
BRANCH  20  23
ATOM     21  C   UNL     1      44.916  76.276  44.224  0.00  0.00    +0.015 C 
ATOM     22  C   UNL     1      44.708  76.849  43.055  0.00  0.00    -0.110 C 
ATOM     23  C   UNL     1      44.402  77.312  41.855  0.00  0.00    +0.015 C 
BRANCH  21  24
ATOM     24  C   UNL     1      44.971  77.175  45.364  0.00  0.00    +0.046 C 
BRANCH  24  25
ATOM     25  C   UNL     1      44.279  76.488  46.539  0.00  0.00    +0.115 C 
BRANCH  25  26
ATOM     26  C   UNL     1      45.257  76.218  47.609  0.00  0.00    +0.317 C 
ATOM     27  O   UNL     1      46.442  76.600  47.496  0.00  0.00    -0.250 OA
BRANCH  26  29
ATOM     28  C   UNL     1      45.742  75.134  49.759  0.00  0.00    +0.256 C 
ATOM     29  O   UNL     1      44.876  75.543  48.739  0.00  0.00    -0.444 OA
ENDBRANCH  26  29
ENDBRANCH  25  26
ENDBRANCH  24  25
ENDBRANCH  21  24
ENDBRANCH  20  23
ENDBRANCH   1  20
TORSDOF 11
