REMARK  Name = Enprofylline
REMARK  2 active torsions:
REMARK  status: ('A' for Active; 'I' for Inactive)
REMARK    1  A    between atoms: C_2  and  C_3
REMARK    2  A    between atoms: C_3  and  N_4
REMARK                            x       y       z     vdW  Elec       q    Type
REMARK                         _______ _______ _______ _____ _____    ______ ____
ROOT
ATOM      1  N   UNL     1      45.785  79.501  40.557  0.00  0.00    -0.263 N 
ATOM      2  C   UNL     1      46.545  80.614  40.523  0.00  0.00    +0.172 A 
ATOM      3  C   UNL     1      46.373  81.603  39.577  0.00  0.00    +0.175 A 
ATOM      4  C   UNL     1      45.381  81.446  38.626  0.00  0.00    +0.304 A 
ATOM      5  O   UNL     1      45.209  82.335  37.758  0.00  0.00    -0.263 OA
ATOM      6  N   UNL     1      44.650  80.323  38.701  0.00  0.00    -0.152 NA
ATOM      7  C   UNL     1      44.824  79.370  39.622  0.00  0.00    +0.354 A 
ATOM      8  O   UNL     1      44.129  78.318  39.681  0.00  0.00    -0.244 OA
ATOM      9  N   UNL     1      47.280  82.562  39.819  0.00  0.00    -0.216 NA
ATOM     10  C   UNL     1      48.027  82.223  40.885  0.00  0.00    +0.200 A 
ATOM     11  N   UNL     1      47.575  81.034  41.312  0.00  0.00    -0.205 NA
ENDROOT
BRANCH   1  12
ATOM     12  C   UNL     1      46.045  78.543  41.575  0.00  0.00    +0.112 C 
BRANCH  12  14
ATOM     13  C   UNL     1      44.882  76.807  42.824  0.00  0.00    +0.002 C 
ATOM     14  C   UNL     1      44.877  78.283  42.489  0.00  0.00    +0.025 C 
ENDBRANCH  12  14
ENDBRANCH   1  12
TORSDOF 2
