REMARK  Name = Entacapone
REMARK  6 active torsions:
REMARK  status: ('A' for Active; 'I' for Inactive)
REMARK    1  A    between atoms: C_2  and  N_3
REMARK    2  A    between atoms: N_3  and  C_4
REMARK    3  A    between atoms: C_6  and  C_8
REMARK    4  A    between atoms: C_8  and  C_21
REMARK    5  A    between atoms: C_9  and  C_10
REMARK    6  A    between atoms: C_12  and  N_18
REMARK                            x       y       z     vdW  Elec       q    Type
REMARK                         _______ _______ _______ _____ _____    ______ ____
ROOT
ATOM      1  C   UNL     1      48.984  81.340  42.568  0.00  0.00    +0.122 C 
ATOM      2  C   UNL     1      47.760  80.819  42.581  0.00  0.00    +0.015 C 
ENDROOT
BRANCH   2   3
ATOM      3  C   UNL     1      46.907  80.919  41.417  0.00  0.00    +0.006 A 
ATOM      4  C   UNL     1      46.072  79.820  41.182  0.00  0.00    +0.028 A 
ATOM      5  C   UNL     1      45.255  79.852  40.073  0.00  0.00    +0.185 A 
ATOM      6  C   UNL     1      45.256  80.945  39.207  0.00  0.00    +0.256 A 
ATOM      7  C   UNL     1      46.077  82.014  39.446  0.00  0.00    +0.236 A 
ATOM      8  C   UNL     1      46.905  81.996  40.560  0.00  0.00    +0.046 A 
ATOM      9  O   UNL     1      46.038  83.077  38.549  0.00  0.00    -0.283 OA
ATOM     10  O   UNL     1      44.395  80.875  38.120  0.00  0.00    -0.281 OA
BRANCH   5  11
ATOM     11  N   UNL     1      44.403  78.756  39.813  0.00  0.00    +0.061 N 
ATOM     12  O   UNL     1      44.443  77.750  40.523  0.00  0.00    -0.126 OA
ATOM     13  O   UNL     1      43.530  78.813  38.769  0.00  0.00    -0.126 OA
ENDBRANCH   5  11
ENDBRANCH   2   3
BRANCH   1  15
ATOM     14  N   UNL     1      49.819  83.761  42.782  0.00  0.00    -0.276 N 
ATOM     15  C   UNL     1      49.169  82.602  43.226  0.00  0.00    +0.259 C 
ATOM     16  O   UNL     1      48.655  82.682  44.410  0.00  0.00    -0.269 OA
BRANCH  14  18
ATOM     17  C   UNL     1      52.100  83.709  42.084  0.00  0.00    +0.023 C 
ATOM     18  C   UNL     1      50.670  83.761  41.622  0.00  0.00    +0.094 C 
ENDBRANCH  14  18
BRANCH  14  19
ATOM     19  C   UNL     1      49.610  84.999  43.550  0.00  0.00    +0.094 C 
ATOM     20  C   UNL     1      48.272  85.606  43.279  0.00  0.00    +0.023 C 
ENDBRANCH  14  19
ENDBRANCH   1  15
BRANCH   1  21
ATOM     21  C   UNL     1      50.008  80.605  41.858  0.00  0.00    +0.105 C 
ATOM     22  N   UNL     1      50.837  80.022  41.265  0.00  0.00    -0.191 NA
ENDBRANCH   1  21
TORSDOF 6
