REMARK  Name = Entrectinib
REMARK  6 active torsions:
REMARK  status: ('A' for Active; 'I' for Inactive)
REMARK    1  A    between atoms: N_5  and  C_8
REMARK    2  A    between atoms: C_10  and  N_35
REMARK    3  A    between atoms: C_11  and  C_14
REMARK    4  A    between atoms: C_23  and  C_26
REMARK    5  A    between atoms: C_26  and  C_27
REMARK    6  A    between atoms: N_35  and  C_36
REMARK                            x       y       z     vdW  Elec       q    Type
REMARK                         _______ _______ _______ _____ _____    ______ ____
ROOT
ATOM      1  C   UNL     1      44.296  79.296  39.427  0.00  0.00    +0.272 C 
ATOM      2  O   UNL     1      44.432  79.540  40.640  0.00  0.00    -0.268 OA
ATOM      3  N   UNL     1      45.220  79.985  38.577  0.00  0.00    -0.155 NA
ATOM      4  C   UNL     1      45.453  81.397  38.757  0.00  0.00    +0.178 A 
ATOM      5  N   UNL     1      44.937  82.430  38.116  0.00  0.00    -0.131 NA
ATOM      6  N   UNL     1      45.442  83.547  38.623  0.00  0.00    -0.147 NA
ATOM      7  C   UNL     1      46.305  83.274  39.614  0.00  0.00    +0.106 A 
ATOM      8  C   UNL     1      46.322  81.880  39.711  0.00  0.00    +0.054 A 
ATOM      9  C   UNL     1      47.121  81.263  40.648  0.00  0.00    +0.001 A 
ATOM     10  C   UNL     1      47.930  81.971  41.523  0.00  0.00    -0.018 A 
ATOM     11  C   UNL     1      47.907  83.345  41.421  0.00  0.00    -0.002 A 
ATOM     12  C   UNL     1      47.105  83.983  40.478  0.00  0.00    +0.021 A 
ENDROOT
BRANCH   1  16
ATOM     13  C   UNL     1      41.311  76.686  37.946  0.00  0.00    +0.049 A 
ATOM     14  C   UNL     1      41.821  76.543  39.211  0.00  0.00    +0.031 A 
ATOM     15  C   UNL     1      42.811  77.377  39.752  0.00  0.00    +0.071 A 
ATOM     16  C   UNL     1      43.274  78.383  38.944  0.00  0.00    +0.070 A 
ATOM     17  C   UNL     1      42.789  78.571  37.650  0.00  0.00    +0.007 A 
ATOM     18  C   UNL     1      41.819  77.717  37.185  0.00  0.00    +0.015 A 
BRANCH  13  23
ATOM     19  C   UNL     1      39.448  72.649  35.658  0.00  0.00    +0.090 C 
ATOM     20  N   UNL     1      38.760  73.731  36.348  0.00  0.00    -0.269 NA
ATOM     21  C   UNL     1      38.950  74.988  35.651  0.00  0.00    +0.094 C 
ATOM     22  C   UNL     1      40.311  75.586  35.957  0.00  0.00    +0.108 C 
ATOM     23  N   UNL     1      40.324  75.859  37.377  0.00  0.00    -0.305 N 
ATOM     24  C   UNL     1      39.290  75.244  38.172  0.00  0.00    +0.108 C 
ATOM     25  C   UNL     1      39.157  73.796  37.723  0.00  0.00    +0.094 C 
ENDBRANCH  13  23
BRANCH  15  26
ATOM     26  N   UNL     1      43.235  77.125  41.070  0.00  0.00    -0.239 NA
BRANCH  26  27
ATOM     27  C   UNL     1      42.859  75.868  41.744  0.00  0.00    +0.097 C 
ATOM     28  C   UNL     1      42.771  76.013  43.229  0.00  0.00    +0.054 C 
ATOM     29  C   UNL     1      43.982  75.311  43.833  0.00  0.00    +0.144 C 
ATOM     30  O   UNL     1      43.986  73.959  43.612  0.00  0.00    -0.354 OA
ATOM     31  C   UNL     1      43.531  73.607  42.342  0.00  0.00    +0.144 C 
ATOM     32  C   UNL     1      43.770  74.726  41.344  0.00  0.00    +0.054 C 
ENDBRANCH  26  27
ENDBRANCH  15  26
ENDBRANCH   1  16
BRANCH  10  33
ATOM     33  C   UNL     1      48.789  81.281  42.526  0.00  0.00    +0.053 C 
BRANCH  33  34
ATOM     34  C   UNL     1      49.924  82.181  42.841  0.00  0.00    -0.013 A 
ATOM     35  C   UNL     1      49.828  83.155  43.812  0.00  0.00    +0.026 A 
ATOM     36  C   UNL     1      50.897  83.990  44.099  0.00  0.00    +0.142 A 
ATOM     37  C   UNL     1      52.087  83.870  43.424  0.00  0.00    +0.059 A 
ATOM     38  C   UNL     1      52.199  82.904  42.453  0.00  0.00    +0.142 A 
ATOM     39  C   UNL     1      51.117  82.065  42.167  0.00  0.00    +0.026 A 
ATOM     40  F   UNL     1      53.375  82.787  41.789  0.00  0.00    -0.204 F 
ATOM     41  F   UNL     1      50.814  84.959  45.059  0.00  0.00    -0.204 F 
ENDBRANCH  33  34
ENDBRANCH  10  33
TORSDOF 6
