REMARK  Name = Enzalutamide
REMARK  5 active torsions:
REMARK  status: ('A' for Active; 'I' for Inactive)
REMARK    1  A    between atoms: N_5  and  C_20
REMARK    2  A    between atoms: N_8  and  C_9
REMARK    3  A    between atoms: C_12  and  C_15
REMARK    4  A    between atoms: C_22  and  C_28
REMARK    5  A    between atoms: C_23  and  C_26
REMARK                            x       y       z     vdW  Elec       q    Type
REMARK                         _______ _______ _______ _____ _____    ______ ____
ROOT
ATOM      1  C   UNL     1      44.706  79.192  42.385  0.00  0.00    +0.030 C 
ATOM      2  C   UNL     1      45.435  78.527  41.220  0.00  0.00    +0.133 C 
ATOM      3  C   UNL     1      46.861  78.829  41.318  0.00  0.00    +0.251 C 
ATOM      4  O   UNL     1      47.726  78.135  41.912  0.00  0.00    -0.272 OA
ATOM      5  N   UNL     1      47.138  80.063  40.624  0.00  0.00    -0.218 N 
ATOM      6  C   UNL     1      46.029  80.204  39.770  0.00  0.00    +0.152 C 
ATOM      7  S   UNL     1      45.820  81.437  38.665  0.00  0.00    -0.017 S 
ATOM      8  N   UNL     1      45.069  79.142  39.938  0.00  0.00    -0.265 N 
ATOM      9  C   UNL     1      45.150  77.070  41.279  0.00  0.00    +0.030 C 
ENDROOT
BRANCH   8  10
ATOM     10  C   UNL     1      43.905  78.961  39.209  0.00  0.00    +0.055 A 
ATOM     11  C   UNL     1      42.656  79.131  39.858  0.00  0.00    +0.045 A 
ATOM     12  C   UNL     1      41.483  78.769  39.294  0.00  0.00    +0.146 A 
ATOM     13  C   UNL     1      41.435  78.189  38.009  0.00  0.00    +0.083 A 
ATOM     14  C   UNL     1      42.647  78.043  37.405  0.00  0.00    +0.008 A 
ATOM     15  C   UNL     1      43.872  78.405  37.949  0.00  0.00    +0.015 A 
ATOM     16  F   UNL     1      40.307  78.952  39.943  0.00  0.00    -0.204 F 
BRANCH  13  17
ATOM     17  C   UNL     1      40.164  77.733  37.431  0.00  0.00    +0.267 C 
ATOM     18  O   UNL     1      39.266  77.188  38.135  0.00  0.00    -0.268 OA
ATOM     19  N   UNL     1      39.894  77.897  36.047  0.00  0.00    -0.200 NA
ATOM     20  C   UNL     1      38.826  77.110  35.434  0.00  0.00    +0.139 C 
ENDBRANCH  13  17
ENDBRANCH   8  10
BRANCH   5  21
ATOM     21  C   UNL     1      48.156  81.033  40.997  0.00  0.00    +0.060 A 
ATOM     22  C   UNL     1      47.747  82.070  41.835  0.00  0.00    +0.020 A 
ATOM     23  C   UNL     1      48.532  83.171  42.063  0.00  0.00    +0.082 A 
ATOM     24  C   UNL     1      49.788  83.310  41.460  0.00  0.00    +0.072 A 
ATOM     25  C   UNL     1      50.201  82.265  40.630  0.00  0.00    +0.012 A 
ATOM     26  C   UNL     1      49.385  81.156  40.415  0.00  0.00    +0.016 A 
BRANCH  23  27
ATOM     27  C   UNL     1      48.056  84.239  42.958  0.00  0.00    +0.419 C 
ATOM     28  F   UNL     1      46.703  84.218  43.162  0.00  0.00    -0.166 F 
ATOM     29  F   UNL     1      48.493  85.492  42.634  0.00  0.00    -0.166 F 
ATOM     30  F   UNL     1      48.579  83.973  44.218  0.00  0.00    -0.166 F 
ENDBRANCH  23  27
BRANCH  24  31
ATOM     31  C   UNL     1      50.507  84.504  41.554  0.00  0.00    +0.100 C 
ATOM     32  N   UNL     1      51.147  85.567  41.659  0.00  0.00    -0.191 NA
ENDBRANCH  24  31
ENDBRANCH   5  21
TORSDOF 5
