REMARK  Name = Epalrestat
REMARK  4 active torsions:
REMARK  status: ('A' for Active; 'I' for Inactive)
REMARK    1  A    between atoms: C_2  and  C_10
REMARK    2  A    between atoms: C_3  and  C_4
REMARK    3  A    between atoms: N_14  and  C_18
REMARK    4  A    between atoms: C_18  and  C_19
REMARK                            x       y       z     vdW  Elec       q    Type
REMARK                         _______ _______ _______ _____ _____    ______ ____
ROOT
ATOM      1  C   UNL     1      46.245  81.670  40.326  0.00  0.00    +0.007 C 
ATOM      2  C   UNL     1      45.735  80.555  39.917  0.00  0.00    +0.085 C 
ATOM      3  C   UNL     1      44.712  80.322  38.925  0.00  0.00    +0.260 C 
ATOM      4  O   UNL     1      44.385  81.251  38.102  0.00  0.00    -0.269 OA
ATOM      5  N   UNL     1      44.132  79.055  38.933  0.00  0.00    -0.233 N 
ATOM      6  C   UNL     1      44.611  78.151  39.910  0.00  0.00    +0.122 C 
ATOM      7  S   UNL     1      43.991  76.749  40.441  0.00  0.00    -0.027 S 
ATOM      8  S   UNL     1      46.155  78.921  40.489  0.00  0.00    -0.060 S 
ENDROOT
BRANCH   1  10
ATOM      9  C   UNL     1      47.556  80.943  42.421  0.00  0.00    +0.031 C 
ATOM     10  C   UNL     1      47.414  81.757  41.176  0.00  0.00    -0.021 C 
ATOM     11  C   UNL     1      48.391  82.597  40.907  0.00  0.00    -0.004 C 
BRANCH  11  12
ATOM     12  C   UNL     1      49.128  83.355  41.930  0.00  0.00    -0.000 A 
ATOM     13  C   UNL     1      50.462  83.175  42.193  0.00  0.00    -0.000 A 
ATOM     14  C   UNL     1      51.093  83.945  43.140  0.00  0.00    -0.000 A 
ATOM     15  C   UNL     1      50.452  84.920  43.870  0.00  0.00    -0.000 A 
ATOM     16  C   UNL     1      49.113  85.093  43.600  0.00  0.00    -0.000 A 
ATOM     17  C   UNL     1      48.455  84.342  42.661  0.00  0.00    -0.000 A 
ENDBRANCH  11  12
ENDBRANCH   1  10
BRANCH   5  18
ATOM     18  C   UNL     1      43.075  78.628  37.990  0.00  0.00    +0.214 C 
BRANCH  18  19
ATOM     19  C   UNL     1      41.739  78.783  38.596  0.00  0.00    +0.385 C 
ATOM     20  O   UNL     1      41.572  79.099  39.801  0.00  0.00    -0.244 OA
ATOM     21  O   UNL     1      40.546  78.590  37.872  0.00  0.00    -0.244 OA
ENDBRANCH  18  19
ENDBRANCH   5  18
TORSDOF 4
