REMARK  Name = Epervudine
REMARK  3 active torsions:
REMARK  status: ('A' for Active; 'I' for Inactive)
REMARK    1  A    between atoms: C_2  and  C_4
REMARK    2  A    between atoms: N_6  and  C1*_12
REMARK    3  A    between atoms: C4*_15  and  C5*_17
REMARK                            x       y       z     vdW  Elec       q    Type
REMARK                         _______ _______ _______ _____ _____    ______ ____
ROOT
ATOM      1  C   UNL     1      47.779  82.056  40.840  0.00  0.00    +0.053 A 
ATOM      2  C   UNL     1      46.987  80.937  40.956  0.00  0.00    +0.082 A 
ATOM      3  N   UNL     1      45.997  80.672  40.089  0.00  0.00    -0.256 N 
ATOM      4  C   UNL     1      45.807  81.554  39.090  0.00  0.00    +0.354 A 
ATOM      5  O   UNL     1      44.885  81.373  38.224  0.00  0.00    -0.244 OA
ATOM      6  N   UNL     1      46.551  82.661  38.932  0.00  0.00    -0.153 NA
ATOM      7  C   UNL     1      47.542  82.927  39.798  0.00  0.00    +0.280 A 
ATOM      8  O   UNL     1      48.285  83.941  39.721  0.00  0.00    -0.265 OA
ENDROOT
BRANCH   3   9
ATOM      9  C1* UNL     1      45.142  79.529  40.155  0.00  0.00    +0.211 C 
ATOM     10  C2* UNL     1      45.574  78.416  39.223  0.00  0.00    +0.089 C 
ATOM     11  C3* UNL     1      44.773  77.246  39.808  0.00  0.00    +0.186 C 
ATOM     12  C4* UNL     1      44.687  77.632  41.248  0.00  0.00    +0.180 C 
ATOM     13  O4* UNL     1      45.152  78.914  41.384  0.00  0.00    -0.332 OA
ATOM     14  O3* UNL     1      45.400  76.040  39.582  0.00  0.00    -0.220 OA
BRANCH  12  15
ATOM     15  C5* UNL     1      43.269  77.512  41.738  0.00  0.00    +0.214 C 
ATOM     16  O5* UNL     1      43.129  76.638  42.790  0.00  0.00    -0.218 OA
ENDBRANCH  12  15
ENDBRANCH   3   9
BRANCH   1  18
ATOM     17  C   UNL     1      48.376  83.045  43.036  0.00  0.00    +0.005 C 
ATOM     18  C   UNL     1      48.842  82.282  41.823  0.00  0.00    +0.029 C 
ATOM     19  C   UNL     1      49.388  80.945  42.341  0.00  0.00    +0.005 C 
ENDBRANCH   1  18
TORSDOF 3
