REMARK  Name = Epicillin
REMARK  4 active torsions:
REMARK  status: ('A' for Active; 'I' for Inactive)
REMARK    1  A    between atoms: CA_3  and  C_21
REMARK    2  A    between atoms: CA_7  and  N_10
REMARK    3  A    between atoms: C_11  and  CA_13
REMARK    4  A    between atoms: CA_13  and  C_14
REMARK                            x       y       z     vdW  Elec       q    Type
REMARK                         _______ _______ _______ _____ _____    ______ ____
ROOT
ATOM      1  C   UNL     1      51.635  82.179  41.542  0.00  0.00    +0.013 C 
ATOM      2  C   UNL     1      50.201  81.946  41.950  0.00  0.00    +0.068 C 
ATOM      3  CA  UNL     1      49.355  83.136  41.768  0.00  0.00    +0.189 C 
ATOM      4  N   UNL     1      48.053  82.840  41.347  0.00  0.00    -0.259 N 
ATOM      5  C   UNL     1      47.730  81.430  41.198  0.00  0.00    +0.153 C 
ATOM      6  S   UNL     1      49.378  80.762  40.837  0.00  0.00    -0.118 S 
ATOM      7  CA  UNL     1      46.892  81.857  40.054  0.00  0.00    +0.200 C 
ATOM      8  C   UNL     1      46.740  83.076  40.936  0.00  0.00    +0.249 C 
ATOM      9  O   UNL     1      45.866  83.929  41.205  0.00  0.00    -0.273 OA
ATOM     10  C   UNL     1      50.107  81.361  43.349  0.00  0.00    +0.013 C 
ENDROOT
BRANCH   7  11
ATOM     11  N   UNL     1      45.629  81.154  40.021  0.00  0.00    -0.194 NA
ATOM     12  C   UNL     1      45.113  80.527  38.866  0.00  0.00    +0.263 C 
ATOM     13  O   UNL     1      45.740  80.641  37.789  0.00  0.00    -0.271 OA
BRANCH  12  14
ATOM     14  CA  UNL     1      43.856  79.758  38.962  0.00  0.00    +0.188 C 
ATOM     15  N   UNL     1      43.300  79.641  37.622  0.00  0.00    -0.119 NA
BRANCH  14  16
ATOM     16  C   UNL     1      44.025  78.451  39.615  0.00  0.00    -0.018 C 
ATOM     17  C   UNL     1      45.089  78.158  40.355  0.00  0.00    -0.028 C 
ATOM     18  C   UNL     1      45.242  76.840  41.002  0.00  0.00    +0.051 C 
ATOM     19  C   UNL     1      43.894  76.415  41.490  0.00  0.00    -0.026 C 
ATOM     20  C   UNL     1      42.832  76.687  40.742  0.00  0.00    -0.026 C 
ATOM     21  C   UNL     1      42.971  77.393  39.453  0.00  0.00    +0.049 C 
ENDBRANCH  14  16
ENDBRANCH  12  14
ENDBRANCH   7  11
BRANCH   3  22
ATOM     22  C   UNL     1      49.318  83.926  43.053  0.00  0.00    +0.383 C 
ATOM     23  O   UNL     1      50.180  84.787  43.330  0.00  0.00    -0.244 OA
ATOM     24  OXT UNL     1      48.295  83.685  43.949  0.00  0.00    -0.244 OA
ENDBRANCH   3  22
TORSDOF 4
