REMARK  Name = Epinastine
REMARK  0 active torsions:
REMARK  status: ('A' for Active; 'I' for Inactive)
REMARK                            x       y       z     vdW  Elec       q    Type
REMARK                         _______ _______ _______ _____ _____    ______ ____
ROOT
ATOM      1  C   UNL     1      44.771  80.880  38.365  0.00  0.00    +0.153 C 
ATOM      2  C   UNL     1      44.897  80.707  39.869  0.00  0.00    +0.126 C 
ATOM      3  C   UNL     1      44.882  79.352  40.358  0.00  0.00    -0.006 A 
ATOM      4  C   UNL     1      44.294  78.477  39.476  0.00  0.00    -0.003 A 
ATOM      5  C   UNL     1      44.196  77.132  39.823  0.00  0.00    -0.000 A 
ATOM      6  C   UNL     1      44.671  76.677  41.013  0.00  0.00    -0.000 A 
ATOM      7  C   UNL     1      45.270  77.584  41.905  0.00  0.00    -0.004 A 
ATOM      8  C   UNL     1      45.373  78.910  41.577  0.00  0.00    -0.020 A 
ATOM      9  C   UNL     1      46.054  79.665  42.668  0.00  0.00    +0.054 C 
ATOM     10  C   UNL     1      47.230  80.412  42.078  0.00  0.00    -0.004 A 
ATOM     11  C   UNL     1      48.362  80.263  42.827  0.00  0.00    -0.003 A 
ATOM     12  C   UNL     1      49.528  80.872  42.378  0.00  0.00    -0.000 A 
ATOM     13  C   UNL     1      49.559  81.607  41.213  0.00  0.00    +0.001 A 
ATOM     14  C   UNL     1      48.398  81.762  40.441  0.00  0.00    +0.015 A 
ATOM     15  C   UNL     1      47.249  81.161  40.890  0.00  0.00    +0.051 A 
ATOM     16  N   UNL     1      46.175  81.421  40.043  0.00  0.00    -0.255 N 
ATOM     17  C   UNL     1      46.127  82.534  39.119  0.00  0.00    +0.225 C 
ATOM     18  N   UNL     1      45.322  82.222  38.155  0.00  0.00    -0.239 NA
ATOM     19  N   UNL     1      46.815  83.750  39.245  0.00  0.00    -0.091 NA
ENDROOT
TORSDOF 0
