REMARK  Name = Epinephrine
REMARK  3 active torsions:
REMARK  status: ('A' for Active; 'I' for Inactive)
REMARK    1  A    between atoms: N_2  and  C_3
REMARK    2  A    between atoms: C_3  and  C_4
REMARK    3  A    between atoms: C_4  and  C_5
REMARK                            x       y       z     vdW  Elec       q    Type
REMARK                         _______ _______ _______ _____ _____    ______ ____
ROOT
ATOM      1  C   UNL     1      47.557  80.869  41.017  0.00  0.00    +0.013 A 
ATOM      2  C   UNL     1      47.199  81.775  40.009  0.00  0.00    +0.044 A 
ATOM      3  C   UNL     1      46.094  81.606  39.232  0.00  0.00    +0.234 A 
ATOM      4  C   UNL     1      45.271  80.508  39.417  0.00  0.00    +0.234 A 
ATOM      5  C   UNL     1      45.614  79.609  40.407  0.00  0.00    +0.045 A 
ATOM      6  C   UNL     1      46.751  79.793  41.197  0.00  0.00    +0.002 A 
ATOM      7  O   UNL     1      44.145  80.349  38.615  0.00  0.00    -0.283 OA
ATOM      8  O   UNL     1      45.740  82.512  38.228  0.00  0.00    -0.283 OA
ENDROOT
BRANCH   1   9
ATOM      9  C   UNL     1      48.778  81.214  41.741  0.00  0.00    +0.192 C 
ATOM     10  O   UNL     1      48.533  81.041  43.127  0.00  0.00    -0.217 OA
BRANCH   9  11
ATOM     11  C   UNL     1      49.366  82.548  41.500  0.00  0.00    +0.126 C 
BRANCH  11  13
ATOM     12  C   UNL     1      51.605  83.243  42.048  0.00  0.00    +0.108 C 
ATOM     13  N   UNL     1      50.297  82.876  42.528  0.00  0.00    -0.213 NA
ENDBRANCH  11  13
ENDBRANCH   9  11
ENDBRANCH   1   9
TORSDOF 3
