REMARK  Name = Epirubicin
REMARK  5 active torsions:
REMARK  status: ('A' for Active; 'I' for Inactive)
REMARK    1  A    between atoms: C_6  and  O_8
REMARK    2  A    between atoms: O_8  and  C_9
REMARK    3  A    between atoms: C_11  and  C_33
REMARK    4  A    between atoms: C_26  and  O_30
REMARK    5  A    between atoms: C_33  and  C_35
REMARK                            x       y       z     vdW  Elec       q    Type
REMARK                         _______ _______ _______ _____ _____    ______ ____
ROOT
ATOM      1  C   UNL     1      42.867  77.025  40.509  0.00  0.00    +0.146 C 
ATOM      2  C   UNL     1      41.495  77.188  39.868  0.00  0.00    +0.072 C 
ATOM      3  C   UNL     1      41.585  77.329  38.368  0.00  0.00    +0.186 C 
ATOM      4  C   UNL     1      42.256  78.649  38.067  0.00  0.00    +0.067 C 
ATOM      5  C   UNL     1      43.364  78.957  38.988  0.00  0.00    +0.021 A 
ATOM      6  C   UNL     1      43.655  78.222  40.112  0.00  0.00    +0.043 A 
ATOM      7  C   UNL     1      44.724  78.620  40.893  0.00  0.00    +0.197 A 
ATOM      8  C   UNL     1      45.490  79.727  40.569  0.00  0.00    +0.084 A 
ATOM      9  C   UNL     1      45.209  80.471  39.446  0.00  0.00    +0.084 A 
ATOM     10  C   UNL     1      44.140  80.064  38.675  0.00  0.00    +0.195 A 
ATOM     11  O   UNL     1      43.872  80.835  37.539  0.00  0.00    -0.287 OA
ATOM     12  C   UNL     1      46.014  81.646  39.093  0.00  0.00    +0.199 C 
ATOM     13  O   UNL     1      45.747  82.309  38.074  0.00  0.00    -0.286 OA
ATOM     14  C   UNL     1      47.142  82.072  39.911  0.00  0.00    +0.045 A 
ATOM     15  C   UNL     1      47.426  81.328  41.035  0.00  0.00    +0.076 A 
ATOM     16  C   UNL     1      46.628  80.160  41.390  0.00  0.00    +0.202 C 
ATOM     17  O   UNL     1      46.920  79.505  42.428  0.00  0.00    -0.286 OA
ATOM     18  C   UNL     1      48.489  81.712  41.825  0.00  0.00    +0.142 A 
ATOM     19  C   UNL     1      49.257  82.823  41.497  0.00  0.00    +0.037 A 
ATOM     20  C   UNL     1      48.971  83.567  40.370  0.00  0.00    +0.003 A 
ATOM     21  C   UNL     1      47.907  83.186  39.575  0.00  0.00    +0.003 A 
ATOM     22  O   UNL     1      45.059  77.908  42.041  0.00  0.00    -0.287 OA
ATOM     23  O   UNL     1      42.240  76.289  37.754  0.00  0.00    -0.218 OA
ENDROOT
BRANCH  18  24
ATOM     24  O   UNL     1      48.751  80.946  42.948  0.00  0.00    -0.471 OA
ATOM     25  C   UNL     1      49.937  81.210  43.668  0.00  0.00    +0.252 C 
ENDBRANCH  18  24
BRANCH   3  26
ATOM     26  C   UNL     1      40.168  77.459  37.882  0.00  0.00    +0.211 C 
ATOM     27  O   UNL     1      39.284  76.925  38.529  0.00  0.00    -0.291 OA
BRANCH  26  28
ATOM     28  C   UNL     1      39.799  78.205  36.656  0.00  0.00    +0.248 C 
ATOM     29  O   UNL     1      38.441  78.129  36.469  0.00  0.00    -0.212 OA
ENDBRANCH  26  28
ENDBRANCH   3  26
BRANCH   1  30
ATOM     30  O   UNL     1      43.392  75.843  40.055  0.00  0.00    -0.328 OA
BRANCH  30  36
ATOM     31  C   UNL     1      43.303  73.818  43.766  0.00  0.00    +0.035 C 
ATOM     32  C   UNL     1      44.156  74.966  43.360  0.00  0.00    +0.150 C 
ATOM     33  C   UNL     1      45.599  74.620  43.147  0.00  0.00    +0.196 C 
ATOM     34  C   UNL     1      45.789  73.803  41.919  0.00  0.00    +0.130 C 
ATOM     35  C   UNL     1      44.923  74.166  40.769  0.00  0.00    +0.083 C 
ATOM     36  C   UNL     1      43.691  74.935  41.089  0.00  0.00    +0.237 C 
ATOM     37  O   UNL     1      43.708  75.646  42.247  0.00  0.00    -0.330 OA
ATOM     38  N   UNL     1      45.594  72.404  42.265  0.00  0.00    -0.130 NA
ATOM     39  O   UNL     1      46.175  74.001  44.249  0.00  0.00    -0.219 OA
ENDBRANCH  30  36
ENDBRANCH   1  30
TORSDOF 5
