REMARK  Name = Eplerenone
REMARK  2 active torsions:
REMARK  status: ('A' for Active; 'I' for Inactive)
REMARK    1  A    between atoms: C_10  and  C_27
REMARK    2  A    between atoms: C_27  and  O_29
REMARK                            x       y       z     vdW  Elec       q    Type
REMARK                         _______ _______ _______ _____ _____    ______ ____
ROOT
ATOM      1  C   UNL     1      46.267  77.489  40.051  0.00  0.00    +0.006 C 
ATOM      2  C   UNL     1      45.568  78.677  40.732  0.00  0.00    +0.041 C 
ATOM      3  C   UNL     1      44.840  78.089  41.920  0.00  0.00    +0.014 C 
ATOM      4  C   UNL     1      43.662  77.253  41.577  0.00  0.00    +0.070 C 
ATOM      5  C   UNL     1      43.234  77.383  40.172  0.00  0.00    +0.173 C 
ATOM      6  O   UNL     1      42.624  76.464  39.556  0.00  0.00    -0.291 OA
ATOM      7  C   UNL     1      43.534  78.629  39.476  0.00  0.00    +0.029 C 
ATOM      8  C   UNL     1      44.663  79.254  39.747  0.00  0.00    -0.039 C 
ATOM      9  C   UNL     1      44.931  80.512  39.023  0.00  0.00    +0.033 C 
ATOM     10  C   UNL     1      46.317  81.059  39.336  0.00  0.00    +0.105 C 
ATOM     11  C   UNL     1      46.460  80.998  40.847  0.00  0.00    +0.039 C 
ATOM     12  C   UNL     1      46.638  79.572  41.239  0.00  0.00    +0.121 C 
ATOM     13  C   UNL     1      47.889  79.142  41.574  0.00  0.00    +0.140 C 
ATOM     14  O   UNL     1      46.960  79.465  42.659  0.00  0.00    -0.356 OA
ATOM     15  C   UNL     1      49.091  80.015  41.619  0.00  0.00    +0.035 C 
ATOM     16  C   UNL     1      48.871  81.455  41.424  0.00  0.00    +0.036 C 
ATOM     17  C   UNL     1      47.467  81.929  41.384  0.00  0.00    +0.006 C 
ATOM     18  C   UNL     1      47.078  82.348  42.794  0.00  0.00    +0.004 C 
ATOM     19  C   UNL     1      48.324  82.279  43.629  0.00  0.00    +0.040 C 
ATOM     20  C   UNL     1      49.433  82.195  42.627  0.00  0.00    +0.136 C 
ATOM     21  C   UNL     1      50.032  83.514  42.286  0.00  0.00    +0.052 C 
ATOM     22  C   UNL     1      50.969  83.740  43.483  0.00  0.00    +0.113 C 
ATOM     23  C   UNL     1      51.452  82.356  43.715  0.00  0.00    +0.317 C 
ATOM     24  O   UNL     1      52.534  82.048  44.265  0.00  0.00    -0.250 OA
ATOM     25  O   UNL     1      50.510  81.485  43.224  0.00  0.00    -0.456 OA
ATOM     26  C   UNL     1      49.602  81.936  40.169  0.00  0.00    +0.004 C 
ENDROOT
BRANCH  10  27
ATOM     27  C   UNL     1      46.429  82.422  38.811  0.00  0.00    +0.317 C 
ATOM     28  O   UNL     1      46.591  82.579  37.575  0.00  0.00    -0.250 OA
BRANCH  27  29
ATOM     29  O   UNL     1      46.368  83.566  39.590  0.00  0.00    -0.444 OA
ATOM     30  C   UNL     1      45.154  84.256  39.858  0.00  0.00    +0.256 C 
ENDBRANCH  27  29
ENDBRANCH  10  27
TORSDOF 2
