REMARK  Name = Epoprostenol
REMARK  10 active torsions:
REMARK  status: ('A' for Active; 'I' for Inactive)
REMARK    1  A    between atoms: C_2  and  C_3
REMARK    2  A    between atoms: C_3  and  C_4
REMARK    3  A    between atoms: C_4  and  C_5
REMARK    4  A    between atoms: C_5  and  C_6
REMARK    5  A    between atoms: C_6  and  C_7
REMARK    6  A    between atoms: C_8  and  C_9
REMARK    7  A    between atoms: C_16  and  C_17
REMARK    8  A    between atoms: C_17  and  C_18
REMARK    9  A    between atoms: C_18  and  C_19
REMARK   10  A    between atoms: C_19  and  C_20
REMARK                            x       y       z     vdW  Elec       q    Type
REMARK                         _______ _______ _______ _____ _____    ______ ____
ROOT
ATOM      1  C   UNL     1      44.524  78.715  39.253  0.00  0.00    +0.056 C 
ATOM      2  C   UNL     1      44.593  77.511  40.190  0.00  0.00    +0.160 C 
ATOM      3  C   UNL     1      43.664  77.982  41.287  0.00  0.00    +0.077 C 
ATOM      4  C   UNL     1      42.465  78.437  40.475  0.00  0.00    +0.169 C 
ATOM      5  C   UNL     1      43.032  78.889  39.173  0.00  0.00    +0.054 C 
ATOM      6  C   UNL     1      42.446  78.007  38.074  0.00  0.00    +0.068 C 
ATOM      7  C   UNL     1      41.401  77.252  38.809  0.00  0.00    +0.112 C 
ATOM      8  C   UNL     1      40.386  76.647  38.228  0.00  0.00    +0.006 C 
ATOM      9  O   UNL     1      41.693  77.308  40.174  0.00  0.00    -0.484 OA
ATOM     10  O   UNL     1      45.868  77.263  40.629  0.00  0.00    -0.223 OA
ENDROOT
BRANCH   1  12
ATOM     11  C   UNL     1      45.774  80.859  39.425  0.00  0.00    +0.002 C 
ATOM     12  C   UNL     1      45.136  79.856  39.973  0.00  0.00    -0.026 C 
BRANCH  11  13
ATOM     13  C   UNL     1      45.914  82.194  40.056  0.00  0.00    +0.174 C 
ATOM     14  O   UNL     1      45.877  83.168  39.059  0.00  0.00    -0.218 OA
BRANCH  13  15
ATOM     15  C   UNL     1      47.139  82.224  40.912  0.00  0.00    +0.037 C 
BRANCH  15  16
ATOM     16  C   UNL     1      47.647  83.584  41.205  0.00  0.00    +0.003 C 
BRANCH  16  17
ATOM     17  C   UNL     1      48.875  83.587  42.049  0.00  0.00    +0.000 C 
BRANCH  17  19
ATOM     18  C   UNL     1      49.293  85.366  43.756  0.00  0.00    +0.000 C 
ATOM     19  C   UNL     1      49.350  84.992  42.283  0.00  0.00    +0.000 C 
ENDBRANCH  17  19
ENDBRANCH  16  17
ENDBRANCH  15  16
ENDBRANCH  13  15
ENDBRANCH  11  13
ENDBRANCH   1  12
BRANCH   8  20
ATOM     20  C   UNL     1      40.236  76.662  36.769  0.00  0.00    +0.029 C 
BRANCH  20  21
ATOM     21  C   UNL     1      39.563  75.399  36.250  0.00  0.00    +0.017 C 
BRANCH  21  22
ATOM     22  C   UNL     1      38.063  75.614  36.221  0.00  0.00    +0.114 C 
BRANCH  22  23
ATOM     23  C   UNL     1      37.430  74.385  35.647  0.00  0.00    +0.365 C 
ATOM     24  O   UNL     1      36.183  74.270  35.565  0.00  0.00    -0.246 OA
ATOM     25  O   UNL     1      38.243  73.359  35.203  0.00  0.00    -0.246 OA
ENDBRANCH  22  23
ENDBRANCH  21  22
ENDBRANCH  20  21
ENDBRANCH   8  20
TORSDOF 10
