REMARK  Name = Eprosartan
REMARK  10 active torsions:
REMARK  status: ('A' for Active; 'I' for Inactive)
REMARK    1  A    between atoms: C_2  and  C_3
REMARK    2  A    between atoms: C_3  and  C_4
REMARK    3  A    between atoms: C_4  and  C_5
REMARK    4  A    between atoms: C_8  and  C_20
REMARK    5  A    between atoms: N_9  and  C_10
REMARK    6  A    between atoms: C_10  and  C_11
REMARK    7  A    between atoms: C_14  and  C_17
REMARK    8  A    between atoms: C_21  and  C_22
REMARK    9  A    between atoms: C_21  and  C_28
REMARK   10  A    between atoms: C_22  and  C_23
REMARK                            x       y       z     vdW  Elec       q    Type
REMARK                         _______ _______ _______ _____ _____    ______ ____
ROOT
ATOM      1  C   UNL     1      44.796  80.379  38.444  0.00  0.00    +0.121 A 
ATOM      2  N   UNL     1      44.901  81.731  38.624  0.00  0.00    -0.229 NA
ATOM      3  C   UNL     1      45.751  81.953  39.606  0.00  0.00    +0.117 A 
ATOM      4  C   UNL     1      46.184  80.706  40.044  0.00  0.00    +0.080 A 
ATOM      5  N   UNL     1      45.595  79.732  39.330  0.00  0.00    -0.311 N 
ENDROOT
BRANCH   4   6
ATOM      6  C   UNL     1      47.177  80.591  41.091  0.00  0.00    +0.021 C 
ATOM      7  C   UNL     1      48.245  81.358  41.229  0.00  0.00    +0.064 C 
BRANCH   7   8
ATOM      8  C   UNL     1      48.889  82.103  40.178  0.00  0.00    +0.384 C 
ATOM      9  O   UNL     1      50.133  82.312  40.089  0.00  0.00    -0.241 OA
ATOM     10  O   UNL     1      48.142  82.673  39.133  0.00  0.00    -0.241 OA
ENDBRANCH   7   8
BRANCH   7  11
ATOM     11  C   UNL     1      48.848  81.395  42.605  0.00  0.00    +0.066 C 
BRANCH  11  12
ATOM     12  C   UNL     1      48.733  82.797  43.144  0.00  0.00    +0.012 A 
ATOM     13  C   UNL     1      47.639  83.613  43.163  0.00  0.00    +0.003 A 
ATOM     14  C   UNL     1      47.780  84.839  43.689  0.00  0.00    +0.007 A 
ATOM     15  C   UNL     1      49.021  85.173  44.168  0.00  0.00    +0.035 A 
ATOM     16  S   UNL     1      49.940  83.771  43.867  0.00  0.00    -0.090 S 
ENDBRANCH  11  12
ENDBRANCH   7  11
ENDBRANCH   4   6
BRANCH   1  17
ATOM     17  C   UNL     1      43.926  79.808  37.402  0.00  0.00    +0.064 C 
BRANCH  17  18
ATOM     18  C   UNL     1      42.590  79.371  37.992  0.00  0.00    +0.008 C 
BRANCH  18  20
ATOM     19  C   UNL     1      41.197  77.379  37.657  0.00  0.00    +0.000 C 
ATOM     20  C   UNL     1      41.822  78.553  36.975  0.00  0.00    +0.000 C 
ENDBRANCH  18  20
ENDBRANCH  17  18
ENDBRANCH   1  17
BRANCH   5  21
ATOM     21  C   UNL     1      45.783  78.315  39.485  0.00  0.00    +0.134 C 
BRANCH  21  22
ATOM     22  C   UNL     1      45.334  77.727  40.758  0.00  0.00    +0.000 A 
ATOM     23  C   UNL     1      45.456  76.365  40.960  0.00  0.00    -0.002 A 
ATOM     24  C   UNL     1      45.058  75.742  42.114  0.00  0.00    +0.006 A 
ATOM     25  C   UNL     1      44.510  76.506  43.126  0.00  0.00    +0.080 A 
ATOM     26  C   UNL     1      44.367  77.865  42.981  0.00  0.00    +0.006 A 
ATOM     27  C   UNL     1      44.788  78.455  41.783  0.00  0.00    -0.002 A 
BRANCH  25  28
ATOM     28  C   UNL     1      44.080  75.851  44.367  0.00  0.00    +0.388 C 
ATOM     29  O   UNL     1      43.396  74.808  44.354  0.00  0.00    -0.241 OA
ATOM     30  O   UNL     1      44.440  76.403  45.586  0.00  0.00    -0.241 OA
ENDBRANCH  25  28
ENDBRANCH  21  22
ENDBRANCH   5  21
TORSDOF 10
