REMARK  Name = Eptazocine_hbr
REMARK  0 active torsions:
REMARK  status: ('A' for Active; 'I' for Inactive)
REMARK                            x       y       z     vdW  Elec       q    Type
REMARK                         _______ _______ _______ _____ _____    ______ ____
ROOT
ATOM      1  C   UNL     1      45.607  80.471  42.662  0.00  0.00    +0.004 C 
ATOM      2  C   UNL     1      46.116  80.450  41.228  0.00  0.00    +0.020 C 
ATOM      3  C   UNL     1      47.529  79.931  41.264  0.00  0.00    +0.021 C 
ATOM      4  C   UNL     1      48.571  80.984  41.122  0.00  0.00    +0.072 C 
ATOM      5  N   UNL     1      48.758  81.400  39.776  0.00  0.00    -0.271 NA
ATOM      6  C   UNL     1      47.650  81.199  38.912  0.00  0.00    +0.072 C 
ATOM      7  C   UNL     1      46.410  81.955  39.282  0.00  0.00    +0.021 C 
ATOM      8  C   UNL     1      46.031  81.867  40.720  0.00  0.00    +0.006 C 
ATOM      9  C   UNL     1      45.274  81.348  38.483  0.00  0.00    +0.027 C 
ATOM     10  C   UNL     1      44.861  80.057  39.102  0.00  0.00    -0.026 A 
ATOM     11  C   UNL     1      45.238  79.635  40.355  0.00  0.00    -0.024 A 
ATOM     12  C   UNL     1      44.769  78.411  40.782  0.00  0.00    +0.037 A 
ATOM     13  C   UNL     1      43.941  77.621  39.980  0.00  0.00    +0.195 A 
ATOM     14  C   UNL     1      43.588  78.070  38.747  0.00  0.00    +0.042 A 
ATOM     15  C   UNL     1      44.031  79.273  38.290  0.00  0.00    -0.001 A 
ATOM     16  O   UNL     1      43.467  76.392  40.404  0.00  0.00    -0.287 OA
ATOM     17  C   UNL     1      49.248  82.743  39.620  0.00  0.00    +0.090 C 
ENDROOT
TORSDOF 0
REMARK  Name = Eptazocine_hbr
REMARK  0 active torsions:
REMARK  status: ('A' for Active; 'I' for Inactive)
REMARK                            x       y       z     vdW  Elec       q    Type
REMARK                         _______ _______ _______ _____ _____    ______ ____
ROOT
ATOM      1 BR   UNL     1      46.822  80.963  40.115  0.00  0.00    +0.000 Br
ENDROOT
TORSDOF 0
