REMARK  Name = Eptifibatide
REMARK  10 active torsions:
REMARK  status: ('A' for Active; 'I' for Inactive)
REMARK    1  A    between atoms: C_7  and  C_55
REMARK    2  A    between atoms: C_16  and  C_47
REMARK    3  A    between atoms: C_24  and  C_43
REMARK    4  A    between atoms: C_28  and  C_33
REMARK    5  A    between atoms: C_33  and  C_34
REMARK    6  A    between atoms: C_43  and  C_44
REMARK    7  A    between atoms: C_47  and  C_48
REMARK    8  A    between atoms: C_48  and  C_49
REMARK    9  A    between atoms: C_49  and  C_50
REMARK   10  A    between atoms: C_50  and  N_51
REMARK                            x       y       z     vdW  Elec       q    Type
REMARK                         _______ _______ _______ _____ _____    ______ ____
ROOT
ATOM      1  C   UNL     1      41.945  73.202  40.393  0.00  0.00    +0.024 C 
ATOM      2  C   UNL     1      43.369  73.007  39.917  0.00  0.00    +0.031 C 
ATOM      3  C   UNL     1      44.125  73.867  40.941  0.00  0.00    +0.154 C 
ATOM      4  C   UNL     1      44.143  73.140  42.232  0.00  0.00    +0.260 C 
ATOM      5  O   UNL     1      43.327  72.203  42.413  0.00  0.00    -0.272 OA
ATOM      6  N   UNL     1      45.023  73.416  43.310  0.00  0.00    -0.195 NA
ATOM      7  C   UNL     1      45.960  74.522  43.308  0.00  0.00    +0.186 C 
ATOM      8  C   UNL     1      47.337  74.091  42.806  0.00  0.00    +0.100 C 
ATOM      9  S   UNL     1      48.012  75.409  41.785  0.00  0.00    -0.080 S 
ATOM     10  S   UNL     1      50.098  75.654  41.995  0.00  0.00    -0.082 S 
ATOM     11  C   UNL     1      50.545  76.549  43.509  0.00  0.00    +0.078 C 
ATOM     12  C   UNL     1      51.050  77.935  43.240  0.00  0.00    +0.099 C 
ATOM     13  C   UNL     1      50.059  78.954  43.636  0.00  0.00    +0.243 C 
ATOM     14  O   UNL     1      48.968  78.560  44.122  0.00  0.00    -0.273 OA
ATOM     15  N   UNL     1      50.267  80.347  43.499  0.00  0.00    -0.198 NA
ATOM     16  C   UNL     1      50.986  80.902  42.395  0.00  0.00    +0.173 C 
ATOM     17  C   UNL     1      50.133  80.983  41.184  0.00  0.00    +0.262 C 
ATOM     18  O   UNL     1      50.578  80.474  40.098  0.00  0.00    -0.271 OA
ATOM     19  N   UNL     1      48.865  81.587  41.160  0.00  0.00    -0.194 NA
ATOM     20  C   UNL     1      47.794  81.347  42.082  0.00  0.00    +0.201 C 
ATOM     21  C   UNL     1      46.544  81.923  41.537  0.00  0.00    +0.264 C 
ATOM     22  O   UNL     1      46.559  83.212  41.520  0.00  0.00    -0.271 OA
ATOM     23  N   UNL     1      45.409  81.251  41.064  0.00  0.00    -0.196 NA
ATOM     24  C   UNL     1      45.283  80.288  40.012  0.00  0.00    +0.184 C 
ATOM     25  C   UNL     1      46.040  79.026  40.223  0.00  0.00    +0.262 C 
ATOM     26  O   UNL     1      47.307  79.181  39.979  0.00  0.00    -0.271 OA
ATOM     27  N   UNL     1      45.569  77.785  40.627  0.00  0.00    -0.196 NA
ATOM     28  C   UNL     1      44.765  76.800  39.925  0.00  0.00    +0.176 C 
ATOM     29  C   UNL     1      43.651  76.355  40.777  0.00  0.00    +0.246 C 
ATOM     30  O   UNL     1      42.996  77.258  41.401  0.00  0.00    -0.273 OA
ATOM     31  N   UNL     1      43.215  75.025  40.991  0.00  0.00    -0.272 N 
ATOM     32  C   UNL     1      41.929  74.381  41.304  0.00  0.00    +0.094 C 
ENDROOT
BRANCH   7  33
ATOM     33  C   UNL     1      46.148  74.994  44.702  0.00  0.00    +0.281 C 
ATOM     34  O   UNL     1      45.436  75.938  45.125  0.00  0.00    -0.270 OA
ATOM     35  N   UNL     1      47.094  74.431  45.587  0.00  0.00    -0.086 NA
ENDBRANCH   7  33
BRANCH  28  36
ATOM     36  C   UNL     1      44.294  77.247  38.594  0.00  0.00    +0.059 C 
BRANCH  36  37
ATOM     37  C   UNL     1      42.886  77.671  38.538  0.00  0.00    +0.001 A 
ATOM     38  C   UNL     1      42.393  78.929  38.921  0.00  0.00    +0.095 A 
ATOM     39  N   UNL     1      41.075  78.970  38.700  0.00  0.00    -0.244 NA
ATOM     40  C   UNL     1      40.653  77.802  38.187  0.00  0.00    +0.081 A 
ATOM     41  C   UNL     1      39.390  77.376  37.813  0.00  0.00    +0.019 A 
ATOM     42  C   UNL     1      39.239  76.102  37.324  0.00  0.00    +0.002 A 
ATOM     43  C   UNL     1      40.324  75.268  37.209  0.00  0.00    +0.000 A 
ATOM     44  C   UNL     1      41.579  75.718  37.590  0.00  0.00    +0.001 A 
ATOM     45  C   UNL     1      41.776  76.996  38.087  0.00  0.00    +0.015 A 
ENDBRANCH  36  37
ENDBRANCH  28  36
BRANCH  24  46
ATOM     46  C   UNL     1      45.762  80.826  38.651  0.00  0.00    +0.145 C 
BRANCH  46  47
ATOM     47  C   UNL     1      45.506  82.250  38.505  0.00  0.00    +0.367 C 
ATOM     48  O   UNL     1      45.867  82.860  37.478  0.00  0.00    -0.246 OA
ATOM     49  O   UNL     1      44.859  82.948  39.503  0.00  0.00    -0.246 OA
ENDBRANCH  46  47
ENDBRANCH  24  46
BRANCH  16  50
ATOM     50  C   UNL     1      51.533  82.294  42.742  0.00  0.00    +0.031 C 
BRANCH  50  51
ATOM     51  C   UNL     1      50.928  82.721  44.049  0.00  0.00    +0.004 C 
BRANCH  51  52
ATOM     52  C   UNL     1      51.839  82.763  45.218  0.00  0.00    +0.026 C 
BRANCH  52  53
ATOM     53  C   UNL     1      51.293  82.244  46.515  0.00  0.00    +0.129 C 
BRANCH  53  54
ATOM     54  N   UNL     1      52.307  82.221  47.513  0.00  0.00    -0.234 NA
ATOM     55  C   UNL     1      52.525  83.101  48.407  0.00  0.00    +0.284 C 
ATOM     56  N   UNL     1      51.417  83.838  48.897  0.00  0.00    -0.104 NA
ATOM     57  N   UNL     1      53.806  83.378  48.932  0.00  0.00    -0.104 NA
ENDBRANCH  53  54
ENDBRANCH  52  53
ENDBRANCH  51  52
ENDBRANCH  50  51
ENDBRANCH  16  50
TORSDOF 10
