REMARK  Name = Erdafitinib
REMARK  9 active torsions:
REMARK  status: ('A' for Active; 'I' for Inactive)
REMARK    1  A    between atoms: C_2  and  N_4
REMARK    2  A    between atoms: N_4  and  C_5
REMARK    3  A    between atoms: C_5  and  C_6
REMARK    4  A    between atoms: C_6  and  N_7
REMARK    5  A    between atoms: N_7  and  C_8
REMARK    6  A    between atoms: N_7  and  C_24
REMARK    7  A    between atoms: C_12  and  C_18
REMARK    8  A    between atoms: C_26  and  O_32
REMARK    9  A    between atoms: C_28  and  O_30
REMARK                            x       y       z     vdW  Elec       q    Type
REMARK                         _______ _______ _______ _____ _____    ______ ____
ROOT
ATOM      1  N   UNL     1      48.987  81.320  41.848  0.00  0.00    -0.285 N 
ENDROOT
BRANCH   1   2
ATOM      2  C   UNL     1      47.835  81.409  40.974  0.00  0.00    +0.053 A 
ATOM      3  C   UNL     1      46.884  80.400  40.919  0.00  0.00    +0.035 A 
ATOM      4  C   UNL     1      45.838  80.370  40.024  0.00  0.00    +0.100 A 
ATOM      5  N   UNL     1      44.936  79.361  40.011  0.00  0.00    -0.242 NA
ATOM      6  C   UNL     1      43.924  79.350  39.130  0.00  0.00    +0.103 A 
ATOM      7  C   UNL     1      43.828  80.392  38.240  0.00  0.00    +0.118 A 
ATOM      8  N   UNL     1      44.728  81.398  38.254  0.00  0.00    -0.241 NA
ATOM      9  C   UNL     1      45.752  81.421  39.136  0.00  0.00    +0.099 A 
ATOM     10  C   UNL     1      46.656  82.449  39.133  0.00  0.00    +0.022 A 
ATOM     11  C   UNL     1      47.706  82.429  40.069  0.00  0.00    +0.016 A 
BRANCH   6  12
ATOM     12  C   UNL     1      42.934  78.252  39.115  0.00  0.00    +0.059 A 
ATOM     13  C   UNL     1      41.946  78.032  38.192  0.00  0.00    +0.098 A 
ATOM     14  N   UNL     1      41.271  76.941  38.543  0.00  0.00    -0.247 N 
ATOM     15  N   UNL     1      41.803  76.459  39.664  0.00  0.00    -0.168 NA
ATOM     16  C   UNL     1      42.826  77.241  40.042  0.00  0.00    +0.123 A 
ATOM     17  C   UNL     1      40.131  76.305  37.877  0.00  0.00    +0.154 C 
ENDBRANCH   6  12
ENDBRANCH   1   2
BRANCH   1  18
ATOM     18  C   UNL     1      49.770  82.463  42.029  0.00  0.00    +0.058 A 
ATOM     19  C   UNL     1      51.104  82.629  41.774  0.00  0.00    +0.052 A 
ATOM     20  C   UNL     1      51.822  83.748  42.178  0.00  0.00    +0.143 A 
ATOM     21  C   UNL     1      51.160  84.734  42.865  0.00  0.00    +0.074 A 
ATOM     22  C   UNL     1      49.810  84.614  43.149  0.00  0.00    +0.143 A 
ATOM     23  C   UNL     1      49.119  83.504  42.745  0.00  0.00    +0.052 A 
BRANCH  22  24
ATOM     24  O   UNL     1      49.134  85.616  43.847  0.00  0.00    -0.471 OA
ATOM     25  C   UNL     1      47.862  86.011  43.385  0.00  0.00    +0.252 C 
ENDBRANCH  22  24
BRANCH  20  26
ATOM     26  O   UNL     1      53.179  83.840  41.880  0.00  0.00    -0.471 OA
ATOM     27  C   UNL     1      53.617  84.618  40.765  0.00  0.00    +0.252 C 
ENDBRANCH  20  26
ENDBRANCH   1  18
BRANCH   1  28
ATOM     28  C   UNL     1      49.212  80.046  42.412  0.00  0.00    +0.114 C 
BRANCH  28  29
ATOM     29  C   UNL     1      50.317  79.177  41.989  0.00  0.00    +0.110 C 
BRANCH  29  30
ATOM     30  N   UNL     1      50.134  77.787  42.436  0.00  0.00    -0.218 NA
BRANCH  30  32
ATOM     31  C   UNL     1      49.977  75.474  41.894  0.00  0.00    +0.019 C 
ATOM     32  C   UNL     1      49.986  76.882  41.328  0.00  0.00    +0.073 C 
ATOM     33  C   UNL     1      51.238  77.003  40.481  0.00  0.00    +0.019 C 
ENDBRANCH  30  32
ENDBRANCH  29  30
ENDBRANCH  28  29
ENDBRANCH   1  28
TORSDOF 9
