REMARK  Name = Erdosteine
REMARK  5 active torsions:
REMARK  status: ('A' for Active; 'I' for Inactive)
REMARK    1  A    between atoms: C_6  and  N_7
REMARK    2  A    between atoms: C_8  and  C_10
REMARK    3  A    between atoms: C_10  and  S_11
REMARK    4  A    between atoms: S_11  and  C_12
REMARK    5  A    between atoms: C_12  and  C_13
REMARK                            x       y       z     vdW  Elec       q    Type
REMARK                         _______ _______ _______ _____ _____    ______ ____
ROOT
ATOM      1  N   UNL     1      48.435  81.701  42.116  0.00  0.00    -0.198 NA
ATOM      2  C   UNL     1      47.288  81.413  41.334  0.00  0.00    +0.253 C 
ATOM      3  O   UNL     1      46.686  82.421  40.866  0.00  0.00    -0.272 OA
ENDROOT
BRANCH   1   9
ATOM      4  C   UNL     1      48.096  83.805  43.120  0.00  0.00    +0.042 C 
ATOM      5  C   UNL     1      48.807  85.094  43.506  0.00  0.00    +0.067 C 
ATOM      6  S   UNL     1      50.461  84.374  43.877  0.00  0.00    -0.075 S 
ATOM      7  C   UNL     1      50.341  82.972  42.728  0.00  0.00    +0.218 C 
ATOM      8  O   UNL     1      51.248  82.187  42.543  0.00  0.00    -0.283 OA
ATOM      9  C   UNL     1      48.994  83.060  42.162  0.00  0.00    +0.164 C 
ENDBRANCH   1   9
BRANCH   2  10
ATOM     10  C   UNL     1      46.844  80.007  41.097  0.00  0.00    +0.145 C 
BRANCH  10  11
ATOM     11  S   UNL     1      45.270  79.975  40.230  0.00  0.00    -0.119 S 
BRANCH  11  12
ATOM     12  C   UNL     1      44.763  78.331  39.712  0.00  0.00    +0.172 C 
BRANCH  12  13
ATOM     13  C   UNL     1      43.426  78.254  39.096  0.00  0.00    +0.376 C 
ATOM     14  O   UNL     1      43.106  79.071  38.182  0.00  0.00    -0.245 OA
ATOM     15  O   UNL     1      42.485  77.314  39.474  0.00  0.00    -0.245 OA
ENDBRANCH  12  13
ENDBRANCH  11  12
ENDBRANCH  10  11
ENDBRANCH   2  10
TORSDOF 5
