REMARK  Name = Ergotamine
REMARK  4 active torsions:
REMARK  status: ('A' for Active; 'I' for Inactive)
REMARK    1  A    between atoms: C_2  and  N_24
REMARK    2  A    between atoms: C_6  and  C_17
REMARK    3  A    between atoms: C_17  and  C_18
REMARK    4  A    between atoms: C_25  and  C_27
REMARK                            x       y       z     vdW  Elec       q    Type
REMARK                         _______ _______ _______ _____ _____    ______ ____
ROOT
ATOM      1  C   UNL     1      47.796  82.267  38.758  0.00  0.00    +0.063 C 
ATOM      2  C   UNL     1      47.444  81.761  40.123  0.00  0.00    +0.243 C 
ATOM      3  C   UNL     1      48.106  82.621  41.113  0.00  0.00    +0.274 C 
ATOM      4  O   UNL     1      48.073  83.871  41.175  0.00  0.00    -0.270 OA
ATOM      5  N   UNL     1      48.800  81.743  41.999  0.00  0.00    -0.225 N 
ATOM      6  C   UNL     1      49.747  82.080  43.020  0.00  0.00    +0.160 C 
ATOM      7  C   UNL     1      50.357  80.834  43.557  0.00  0.00    +0.244 C 
ATOM      8  O   UNL     1      50.842  80.816  44.744  0.00  0.00    -0.273 OA
ATOM      9  N   UNL     1      50.392  79.682  42.741  0.00  0.00    -0.273 N 
ATOM     10  C   UNL     1      51.380  78.609  42.597  0.00  0.00    +0.094 C 
ATOM     11  C   UNL     1      51.305  78.270  41.136  0.00  0.00    +0.023 C 
ATOM     12  C   UNL     1      50.107  79.007  40.556  0.00  0.00    +0.029 C 
ATOM     13  C   UNL     1      49.339  79.334  41.818  0.00  0.00    +0.149 C 
ATOM     14  C   UNL     1      48.334  80.417  41.669  0.00  0.00    +0.307 C 
ATOM     15  O   UNL     1      47.988  80.485  40.319  0.00  0.00    -0.294 OA
ATOM     16  O   UNL     1      47.194  80.201  42.463  0.00  0.00    -0.172 OA
ENDROOT
BRANCH   2  17
ATOM     17  N   UNL     1      46.023  81.676  40.371  0.00  0.00    -0.173 NA
ATOM     18  C   UNL     1      45.248  80.605  39.868  0.00  0.00    +0.249 C 
ATOM     19  O   UNL     1      45.462  80.242  38.676  0.00  0.00    -0.273 OA
BRANCH  18  20
ATOM     20  C   UNL     1      44.210  79.915  40.694  0.00  0.00    +0.116 C 
ATOM     21  C   UNL     1      44.851  78.780  41.450  0.00  0.00    +0.086 C 
ATOM     22  N   UNL     1      43.879  77.734  41.764  0.00  0.00    -0.268 NA
ATOM     23  C   UNL     1      43.515  77.154  40.456  0.00  0.00    +0.084 C 
ATOM     24  C   UNL     1      42.895  75.818  40.598  0.00  0.00    +0.048 C 
ATOM     25  C   UNL     1      41.764  75.519  39.727  0.00  0.00    +0.000 A 
ATOM     26  C   UNL     1      41.055  74.374  39.483  0.00  0.00    +0.095 A 
ATOM     27  N   UNL     1      40.089  74.668  38.561  0.00  0.00    -0.244 NA
ATOM     28  C   UNL     1      40.167  75.970  38.214  0.00  0.00    +0.081 A 
ATOM     29  C   UNL     1      39.519  76.851  37.378  0.00  0.00    +0.019 A 
ATOM     30  C   UNL     1      39.916  78.170  37.300  0.00  0.00    +0.002 A 
ATOM     31  C   UNL     1      40.980  78.667  38.056  0.00  0.00    -0.000 A 
ATOM     32  C   UNL     1      41.628  77.778  38.894  0.00  0.00    -0.002 A 
ATOM     33  C   UNL     1      41.207  76.477  38.945  0.00  0.00    +0.015 A 
ATOM     34  C   UNL     1      42.752  78.171  39.736  0.00  0.00    -0.011 C 
ATOM     35  C   UNL     1      43.060  79.440  39.842  0.00  0.00    -0.019 C 
ATOM     36  C   UNL     1      44.643  76.673  42.436  0.00  0.00    +0.090 C 
ENDBRANCH  18  20
ENDBRANCH   2  17
BRANCH   6  37
ATOM     37  C   UNL     1      50.879  82.961  42.563  0.00  0.00    +0.056 C 
BRANCH  37  38
ATOM     38  C   UNL     1      50.520  84.367  42.338  0.00  0.00    -0.020 A 
ATOM     39  C   UNL     1      49.716  85.055  43.221  0.00  0.00    -0.004 A 
ATOM     40  C   UNL     1      49.391  86.369  42.985  0.00  0.00    -0.000 A 
ATOM     41  C   UNL     1      49.829  87.072  41.887  0.00  0.00    -0.000 A 
ATOM     42  C   UNL     1      50.633  86.381  41.006  0.00  0.00    -0.000 A 
ATOM     43  C   UNL     1      50.974  85.068  41.215  0.00  0.00    -0.004 A 
ENDBRANCH  37  38
ENDBRANCH   6  37
TORSDOF 4
