REMARK  Name = Ergoloid_mesylate
REMARK  5 active torsions:
REMARK  status: ('A' for Active; 'I' for Inactive)
REMARK    1  A    between atoms: C_2  and  C_3
REMARK    2  A    between atoms: C_3  and  C_6
REMARK    3  A    between atoms: C_18  and  C_20
REMARK    4  A    between atoms: C_18  and  N_23
REMARK    5  A    between atoms: C_24  and  C_26
REMARK                            x       y       z     vdW  Elec       q    Type
REMARK                         _______ _______ _______ _____ _____    ______ ____
ROOT
ATOM      1  C   UNL     1      41.234  76.459  38.317  0.00  0.00    +0.156 C 
ATOM      2  C   UNL     1      40.502  75.221  38.748  0.00  0.00    +0.244 C 
ATOM      3  O   UNL     1      39.675  74.669  37.987  0.00  0.00    -0.273 OA
ATOM      4  N   UNL     1      40.726  74.644  40.025  0.00  0.00    -0.273 N 
ATOM      5  C   UNL     1      39.995  73.617  40.729  0.00  0.00    +0.094 C 
ATOM      6  C   UNL     1      40.827  73.267  41.921  0.00  0.00    +0.023 C 
ATOM      7  C   UNL     1      41.522  74.597  42.234  0.00  0.00    +0.029 C 
ATOM      8  C   UNL     1      41.860  75.095  40.848  0.00  0.00    +0.149 C 
ATOM      9  C   UNL     1      41.835  76.618  40.755  0.00  0.00    +0.307 C 
ATOM     10  N   UNL     1      42.072  76.940  39.375  0.00  0.00    -0.225 N 
ATOM     11  C   UNL     1      43.227  77.749  39.318  0.00  0.00    +0.274 C 
ATOM     12  O   UNL     1      43.823  78.344  38.414  0.00  0.00    -0.270 OA
ATOM     13  C   UNL     1      43.732  77.803  40.767  0.00  0.00    +0.243 C 
ATOM     14  O   UNL     1      42.794  77.203  41.525  0.00  0.00    -0.294 OA
ATOM     15  O   UNL     1      40.574  76.993  41.219  0.00  0.00    -0.172 OA
ENDROOT
BRANCH   1  16
ATOM     16  C   UNL     1      40.287  77.441  37.717  0.00  0.00    +0.025 C 
ATOM     17  C   UNL     1      40.998  78.679  37.229  0.00  0.00    +0.002 C 
ATOM     18  C   UNL     1      39.297  77.957  38.785  0.00  0.00    +0.002 C 
BRANCH  16  20
ATOM     19  C   UNL     1      40.226  76.063  35.629  0.00  0.00    +0.000 C 
ATOM     20  C   UNL     1      39.417  76.849  36.639  0.00  0.00    +0.002 C 
ENDBRANCH  16  20
ENDBRANCH   1  16
BRANCH  13  21
ATOM     21  C   UNL     1      45.010  76.988  40.782  0.00  0.00    +0.053 C 
ATOM     22  C   UNL     1      44.919  75.602  40.262  0.00  0.00    +0.005 C 
ATOM     23  C   UNL     1      45.580  76.906  42.192  0.00  0.00    +0.005 C 
ENDBRANCH  13  21
BRANCH  13  24
ATOM     24  N   UNL     1      43.942  79.213  40.987  0.00  0.00    -0.173 NA
ATOM     25  C   UNL     1      44.513  80.104  40.068  0.00  0.00    +0.245 C 
ATOM     26  O   UNL     1      43.843  80.970  39.489  0.00  0.00    -0.273 OA
BRANCH  25  27
ATOM     27  C   UNL     1      45.994  80.007  39.773  0.00  0.00    +0.095 C 
ATOM     28  C   UNL     1      46.807  80.105  41.022  0.00  0.00    +0.016 C 
ATOM     29  C   UNL     1      47.663  81.354  40.940  0.00  0.00    +0.038 C 
ATOM     30  C   UNL     1      46.778  82.482  40.512  0.00  0.00    +0.066 C 
ATOM     31  C   UNL     1      47.228  83.841  40.863  0.00  0.00    +0.044 C 
ATOM     32  C   UNL     1      47.984  83.975  42.112  0.00  0.00    -0.001 A 
ATOM     33  C   UNL     1      48.328  85.020  42.929  0.00  0.00    +0.095 A 
ATOM     34  N   UNL     1      49.061  84.549  43.986  0.00  0.00    -0.244 NA
ATOM     35  C   UNL     1      49.179  83.209  43.836  0.00  0.00    +0.081 A 
ATOM     36  C   UNL     1      49.777  82.166  44.531  0.00  0.00    +0.019 A 
ATOM     37  C   UNL     1      49.685  80.853  44.050  0.00  0.00    +0.001 A 
ATOM     38  C   UNL     1      48.993  80.562  42.868  0.00  0.00    -0.004 A 
ATOM     39  C   UNL     1      48.397  81.619  42.178  0.00  0.00    -0.020 A 
ATOM     40  C   UNL     1      48.522  82.865  42.695  0.00  0.00    +0.011 A 
ATOM     41  N   UNL     1      46.516  82.316  39.089  0.00  0.00    -0.272 NA
ATOM     42  C   UNL     1      46.411  80.950  38.698  0.00  0.00    +0.081 C 
ATOM     43  C   UNL     1      47.539  82.942  38.270  0.00  0.00    +0.090 C 
ENDBRANCH  25  27
ENDBRANCH  13  24
TORSDOF 5
