REMARK  Name = Ergocalciferol
REMARK  5 active torsions:
REMARK  status: ('A' for Active; 'I' for Inactive)
REMARK    1  A    between atoms: C_2  and  C_4
REMARK    2  A    between atoms: C_4  and  C_6
REMARK    3  A    between atoms: C_7  and  C_8
REMARK    4  A    between atoms: C_8  and  C_10
REMARK    5  A    between atoms: C_19  and  C_20
REMARK                            x       y       z     vdW  Elec       q    Type
REMARK                         _______ _______ _______ _____ _____    ______ ____
ROOT
ATOM      1  C   UNL     1      44.612  78.696  40.776  0.00  0.00    +0.004 C 
ATOM      2  C   UNL     1      45.691  78.416  41.778  0.00  0.00    +0.001 C 
ATOM      3  C   UNL     1      46.454  79.739  41.885  0.00  0.00    +0.004 C 
ATOM      4  C   UNL     1      45.519  80.769  41.313  0.00  0.00    +0.018 C 
ATOM      5  C   UNL     1      44.800  80.025  40.170  0.00  0.00    +0.004 C 
ATOM      6  C   UNL     1      45.654  80.133  38.965  0.00  0.00    +0.001 C 
ATOM      7  C   UNL     1      45.573  81.527  38.370  0.00  0.00    +0.004 C 
ATOM      8  C   UNL     1      45.671  82.520  39.514  0.00  0.00    +0.022 C 
ATOM      9  C   UNL     1      46.336  81.849  40.645  0.00  0.00    -0.045 C 
ATOM     10  C   UNL     1      47.537  82.116  41.090  0.00  0.00    -0.009 C 
ATOM     11  C   UNL     1      43.424  80.648  39.967  0.00  0.00    +0.000 C 
ENDROOT
BRANCH  10  12
ATOM     12  C   UNL     1      48.192  83.382  40.916  0.00  0.00    -0.005 C 
ATOM     13  C   UNL     1      49.182  83.738  41.736  0.00  0.00    -0.024 C 
ATOM     14  C   UNL     1      50.550  83.279  41.458  0.00  0.00    +0.059 C 
ATOM     15  C   UNL     1      51.495  83.951  42.429  0.00  0.00    +0.157 C 
ATOM     16  C   UNL     1      51.020  83.683  43.841  0.00  0.00    +0.038 C 
ATOM     17  C   UNL     1      49.746  84.455  44.139  0.00  0.00    +0.029 C 
ATOM     18  C   UNL     1      48.921  84.562  42.896  0.00  0.00    -0.026 C 
ATOM     19  C   UNL     1      47.946  85.437  42.903  0.00  0.00    -0.005 C 
ATOM     20  O   UNL     1      52.757  83.378  42.300  0.00  0.00    -0.223 OA
ENDBRANCH  10  12
BRANCH   1  21
ATOM     21  C   UNL     1      44.296  77.545  39.867  0.00  0.00    +0.022 C 
ATOM     22  C   UNL     1      44.923  76.238  40.295  0.00  0.00    +0.005 C 
BRANCH  21  24
ATOM     23  C   UNL     1      42.208  76.936  38.770  0.00  0.00    -0.031 C 
ATOM     24  C   UNL     1      42.809  77.278  39.875  0.00  0.00    -0.031 C 
BRANCH  23  25
ATOM     25  C   UNL     1      40.735  76.855  38.593  0.00  0.00    +0.022 C 
ATOM     26  C   UNL     1      40.325  75.527  39.221  0.00  0.00    +0.005 C 
BRANCH  25  28
ATOM     27  C   UNL     1      40.777  75.663  36.404  0.00  0.00    +0.000 C 
ATOM     28  C   UNL     1      40.388  76.957  37.140  0.00  0.00    +0.004 C 
ATOM     29  C   UNL     1      38.865  77.112  37.043  0.00  0.00    +0.000 C 
ENDBRANCH  25  28
ENDBRANCH  23  25
ENDBRANCH  21  24
ENDBRANCH   1  21
TORSDOF 5
