REMARK  Name = Ergonovine
REMARK  3 active torsions:
REMARK  status: ('A' for Active; 'I' for Inactive)
REMARK    1  A    between atoms: CA_2  and  C_3
REMARK    2  A    between atoms: CA_2  and  N_5
REMARK    3  A    between atoms: C_6  and  C_8
REMARK                            x       y       z     vdW  Elec       q    Type
REMARK                         _______ _______ _______ _____ _____    ______ ____
ROOT
ATOM      1  C   UNK A   0      47.324  81.562  41.364  0.00  0.00    +0.116 C 
ATOM      2  C   UNK A   0      47.417  81.799  39.863  0.00  0.00    +0.086 C 
ATOM      3  N   UNK A   0      46.138  81.997  39.269  0.00  0.00    -0.268 NA
ATOM      4  C   UNK A   0      45.111  81.096  39.671  0.00  0.00    +0.084 C 
ATOM      5  C   UNK A   0      44.602  80.415  38.429  0.00  0.00    +0.048 C 
ATOM      6  C   UNK A   0      43.850  79.198  38.666  0.00  0.00    +0.000 A 
ATOM      7  C   UNK A   0      42.959  78.463  37.887  0.00  0.00    +0.095 A 
ATOM      8  N   UNK A   0      42.538  77.384  38.612  0.00  0.00    -0.244 NA
ATOM      9  C   UNK A   0      43.128  77.408  39.818  0.00  0.00    +0.081 A 
ATOM     10  C   UNK A   0      43.132  76.644  40.971  0.00  0.00    +0.019 A 
ATOM     11  C   UNK A   0      43.916  77.016  42.071  0.00  0.00    +0.002 A 
ATOM     12  C   UNK A   0      44.716  78.150  42.060  0.00  0.00    -0.000 A 
ATOM     13  C   UNK A   0      44.698  78.895  40.904  0.00  0.00    -0.002 A 
ATOM     14  C   UNK A   0      43.925  78.519  39.834  0.00  0.00    +0.015 A 
ATOM     15  C   UNK A   0      45.490  80.133  40.727  0.00  0.00    -0.011 C 
ATOM     16  C   UNK A   0      46.504  80.326  41.512  0.00  0.00    -0.019 C 
ATOM     17  C   UNK A   0      45.728  83.374  39.196  0.00  0.00    +0.090 C 
ENDROOT
BRANCH   1  19
ATOM     18  N   ALA A   1      49.714  82.295  41.588  0.00  0.00    -0.204 NA
ATOM     19  C   UNK A   0      48.732  81.317  41.827  0.00  0.00    +0.246 C 
ATOM     20  O   UNK A   0      49.047  80.267  42.416  0.00  0.00    -0.273 OA
BRANCH  18  22
ATOM     21  CB  ALA A   1      51.922  83.137  41.877  0.00  0.00    +0.026 C 
ATOM     22  CA  ALA A   1      50.626  82.795  42.580  0.00  0.00    +0.128 C 
BRANCH  22  23
ATOM     23  C   ALA A   1      50.069  83.999  43.308  0.00  0.00    +0.204 C 
ATOM     24  O   ALA A   1      50.925  84.487  44.264  0.00  0.00    -0.219 OA
ENDBRANCH  22  23
ENDBRANCH  18  22
ENDBRANCH   1  19
TORSDOF 3
