REMARK  Name = Eribulin
REMARK  4 active torsions:
REMARK  status: ('A' for Active; 'I' for Inactive)
REMARK    1  A    between atoms: C_44  and  C_48
REMARK    2  A    between atoms: C_45  and  O_46
REMARK    3  A    between atoms: C_48  and  C_49
REMARK    4  A    between atoms: C_49  and  C_50
REMARK                            x       y       z     vdW  Elec       q    Type
REMARK                         _______ _______ _______ _____ _____    ______ ____
ROOT
ATOM      1  C   UNL     1      50.478  78.910  45.037  0.00  0.00    +0.005 C 
ATOM      2  C   UNL     1      50.562  77.995  43.828  0.00  0.00    +0.023 C 
ATOM      3  C   UNL     1      49.423  76.999  43.793  0.00  0.00    +0.034 C 
ATOM      4  C   UNL     1      48.113  77.594  43.428  0.00  0.00    +0.116 C 
ATOM      5  C   UNL     1      47.190  76.502  42.890  0.00  0.00    +0.032 C 
ATOM      6  C   UNL     1      47.545  76.174  41.468  0.00  0.00    +0.036 C 
ATOM      7  C   UNL     1      46.772  75.013  40.950  0.00  0.00    +0.134 C 
ATOM      8  C   UNL     1      46.946  73.768  41.743  0.00  0.00    -0.015 C 
ATOM      9  C   UNL     1      47.901  73.398  42.556  0.00  0.00    -0.007 C 
ATOM     10  C   UNL     1      45.736  72.942  41.421  0.00  0.00    +0.054 C 
ATOM     11  C   UNL     1      44.972  73.911  40.522  0.00  0.00    +0.120 C 
ATOM     12  O   UNL     1      45.412  75.189  40.937  0.00  0.00    -0.354 OA
ATOM     13  C   UNL     1      43.485  73.757  40.662  0.00  0.00    +0.035 C 
ATOM     14  C   UNL     1      42.764  73.925  39.346  0.00  0.00    +0.059 C 
ATOM     15  C   UNL     1      41.521  74.811  39.497  0.00  0.00    +0.190 C 
ATOM     16  C   UNL     1      40.411  73.865  39.958  0.00  0.00    +0.088 C 
ATOM     17  C   UNL     1      39.201  74.692  39.504  0.00  0.00    +0.150 C 
ATOM     18  C   UNL     1      39.755  75.288  38.205  0.00  0.00    +0.174 C 
ATOM     19  O   UNL     1      41.114  75.159  38.250  0.00  0.00    -0.332 OA
ATOM     20  C   UNL     1      39.414  76.746  38.430  0.00  0.00    +0.174 C 
ATOM     21  C   UNL     1      39.666  76.846  39.912  0.00  0.00    +0.174 C 
ATOM     22  O   UNL     1      39.061  75.717  40.397  0.00  0.00    -0.351 OA
ATOM     23  C   UNL     1      41.120  76.974  40.254  0.00  0.00    +0.176 C 
ATOM     24  O   UNL     1      41.799  75.799  40.373  0.00  0.00    -0.332 OA
ATOM     25  C   UNL     1      41.770  77.982  39.339  0.00  0.00    +0.172 C 
ATOM     26  C   UNL     1      41.382  77.872  37.919  0.00  0.00    +0.145 C 
ATOM     27  O   UNL     1      40.076  77.622  37.655  0.00  0.00    -0.351 OA
ATOM     28  C   UNL     1      41.732  79.215  37.255  0.00  0.00    +0.035 C 
ATOM     29  C   UNL     1      43.013  79.731  37.871  0.00  0.00    +0.033 C 
ATOM     30  C   UNL     1      43.804  78.575  38.426  0.00  0.00    +0.123 C 
ATOM     31  O   UNL     1      43.157  77.908  39.449  0.00  0.00    -0.353 OA
ATOM     32  C   UNL     1      45.193  78.948  38.828  0.00  0.00    +0.094 C 
ATOM     33  C   UNL     1      45.353  80.324  39.304  0.00  0.00    +0.153 C 
ATOM     34  O   UNL     1      45.090  81.238  38.557  0.00  0.00    -0.296 OA
ATOM     35  C   UNL     1      45.827  80.658  40.675  0.00  0.00    +0.070 C 
ATOM     36  C   UNL     1      47.064  81.508  40.662  0.00  0.00    +0.064 C 
ATOM     37  C   UNL     1      47.950  81.129  41.831  0.00  0.00    +0.121 C 
ATOM     38  C   UNL     1      49.176  80.389  41.412  0.00  0.00    +0.063 C 
ATOM     39  C   UNL     1      49.222  78.945  41.876  0.00  0.00    +0.136 C 
ATOM     40  C   UNL     1      50.510  78.753  42.578  0.00  0.00    -0.018 C 
ATOM     41  C   UNL     1      51.604  79.277  42.056  0.00  0.00    -0.007 C 
ATOM     42  O   UNL     1      48.125  78.707  42.645  0.00  0.00    -0.355 OA
ATOM     43  O   UNL     1      48.220  82.268  42.546  0.00  0.00    -0.356 OA
ATOM     44  C   UNL     1      47.886  83.381  41.782  0.00  0.00    +0.145 C 
ATOM     45  C   UNL     1      46.693  82.920  41.015  0.00  0.00    +0.145 C 
ENDROOT
BRANCH  45  46
ATOM     46  O   UNL     1      46.315  83.702  39.958  0.00  0.00    -0.351 OA
ATOM     47  C   UNL     1      47.217  83.637  38.897  0.00  0.00    +0.174 C 
ENDBRANCH  45  46
BRANCH  44  48
ATOM     48  C   UNL     1      49.072  83.742  40.959  0.00  0.00    +0.066 C 
BRANCH  48  49
ATOM     49  C   UNL     1      50.023  84.713  41.565  0.00  0.00    +0.173 C 
ATOM     50  O   UNL     1      51.172  84.713  40.738  0.00  0.00    -0.221 OA
BRANCH  49  51
ATOM     51  C   UNL     1      50.513  84.298  42.932  0.00  0.00    +0.142 C 
ATOM     52  N   UNL     1      50.457  85.461  43.798  0.00  0.00    -0.129 NA
ENDBRANCH  49  51
ENDBRANCH  48  49
ENDBRANCH  44  48
TORSDOF 4
