REMARK  Name = Erlotinib
REMARK  10 active torsions:
REMARK  status: ('A' for Active; 'I' for Inactive)
REMARK    1  A    between atoms: O_2  and  C_3
REMARK    2  A    between atoms: C_3  and  C_4
REMARK    3  A    between atoms: C_4  and  O_5
REMARK    4  A    between atoms: O_5  and  C_6
REMARK    5  A    between atoms: C_7  and  O_25
REMARK    6  A    between atoms: N_16  and  C_17
REMARK    7  A    between atoms: C_21  and  C_23
REMARK    8  A    between atoms: O_25  and  C_26
REMARK    9  A    between atoms: C_26  and  C_27
REMARK   10  A    between atoms: C_27  and  O_28
REMARK                            x       y       z     vdW  Elec       q    Type
REMARK                         _______ _______ _______ _____ _____    ______ ____
ROOT
ATOM      1  C   UNL     1      44.581  78.432  40.252  0.00  0.00    +0.173 A 
ATOM      2  C   UNL     1      43.791  78.830  39.217  0.00  0.00    +0.174 A 
ATOM      3  C   UNL     1      44.053  80.140  38.622  0.00  0.00    +0.059 A 
ATOM      4  C   UNL     1      45.056  81.072  38.967  0.00  0.00    +0.089 A 
ATOM      5  C   UNL     1      45.747  80.561  40.016  0.00  0.00    +0.054 A 
ATOM      6  C   UNL     1      45.652  79.458  40.657  0.00  0.00    +0.044 A 
ATOM      7  C   UNL     1      46.872  81.429  40.401  0.00  0.00    +0.155 A 
ATOM      8  N   UNL     1      47.100  82.507  39.732  0.00  0.00    -0.207 NA
ATOM      9  C   UNL     1      46.428  82.991  38.688  0.00  0.00    +0.200 A 
ATOM     10  N   UNL     1      45.361  82.207  38.321  0.00  0.00    -0.224 NA
ATOM     11  N   UNL     1      47.447  81.095  41.655  0.00  0.00    -0.194 NA
ENDROOT
BRANCH  11  12
ATOM     12  C   UNL     1      48.334  82.077  42.182  0.00  0.00    +0.073 A 
ATOM     13  C   UNL     1      47.983  82.978  43.002  0.00  0.00    +0.017 A 
ATOM     14  C   UNL     1      48.564  84.018  43.682  0.00  0.00    +0.002 A 
ATOM     15  C   UNL     1      50.006  83.990  43.263  0.00  0.00    +0.008 A 
ATOM     16  C   UNL     1      50.473  83.118  42.420  0.00  0.00    +0.044 A 
ATOM     17  C   UNL     1      49.733  82.059  41.778  0.00  0.00    +0.025 A 
BRANCH  16  18
ATOM     18  C   UNL     1      51.852  83.138  42.211  0.00  0.00    -0.051 C 
ATOM     19  C   UNL     1      53.120  83.140  42.027  0.00  0.00    -0.009 C 
ENDBRANCH  16  18
ENDBRANCH  11  12
BRANCH   1  20
ATOM     20  O   UNL     1      44.691  77.286  40.982  0.00  0.00    -0.470 OA
BRANCH  20  21
ATOM     21  C   UNL     1      44.553  77.477  42.448  0.00  0.00    +0.237 C 
BRANCH  21  22
ATOM     22  C   UNL     1      44.541  76.075  42.996  0.00  0.00    +0.189 C 
BRANCH  22  24
ATOM     23  C   UNL     1      43.030  74.501  44.047  0.00  0.00    +0.174 C 
ATOM     24  O   UNL     1      43.689  75.511  43.703  0.00  0.00    -0.347 OA
ENDBRANCH  22  24
ENDBRANCH  21  22
ENDBRANCH  20  21
ENDBRANCH   1  20
BRANCH   2  25
ATOM     25  O   UNL     1      42.843  77.999  38.702  0.00  0.00    -0.470 OA
BRANCH  25  26
ATOM     26  C   UNL     1      41.557  78.265  38.208  0.00  0.00    +0.237 C 
BRANCH  26  27
ATOM     27  C   UNL     1      40.758  77.169  37.738  0.00  0.00    +0.189 C 
BRANCH  27  28
ATOM     28  O   UNL     1      41.056  76.419  36.629  0.00  0.00    -0.347 OA
ATOM     29  C   UNL     1      39.964  75.438  36.547  0.00  0.00    +0.174 C 
ENDBRANCH  27  28
ENDBRANCH  26  27
ENDBRANCH  25  26
ENDBRANCH   2  25
TORSDOF 10
