REMARK  Name = Ertapenem
REMARK  7 active torsions:
REMARK  status: ('A' for Active; 'I' for Inactive)
REMARK    1  A    between atoms: C_4  and  C_31
REMARK    2  A    between atoms: C_8  and  C_28
REMARK    3  A    between atoms: C_9  and  S_10
REMARK    4  A    between atoms: S_10  and  C_11
REMARK    5  A    between atoms: C_13  and  C_16
REMARK    6  A    between atoms: N_18  and  C_19
REMARK    7  A    between atoms: C_23  and  C_25
REMARK                            x       y       z     vdW  Elec       q    Type
REMARK                         _______ _______ _______ _____ _____    ______ ____
ROOT
ATOM      1  C   UNL     1      44.283  78.876  39.704  0.00  0.00    +0.071 C 
ATOM      2  C   UNL     1      43.507  77.640  39.391  0.00  0.00    +0.039 C 
ATOM      3  C   UNL     1      42.853  77.906  38.047  0.00  0.00    +0.152 C 
ATOM      4  N   UNL     1      43.547  78.991  37.458  0.00  0.00    -0.209 NA
ATOM      5  C   UNL     1      44.274  79.704  38.448  0.00  0.00    +0.100 C 
ENDROOT
BRANCH   3   6
ATOM      6  C   UNL     1      41.375  78.131  38.208  0.00  0.00    +0.261 C 
ATOM      7  O   UNL     1      40.914  79.210  37.770  0.00  0.00    -0.271 OA
ATOM      8  N   UNL     1      40.519  77.201  38.816  0.00  0.00    -0.178 NA
BRANCH   8   9
ATOM      9  C   UNL     1      39.142  77.022  38.561  0.00  0.00    +0.074 A 
ATOM     10  C   UNL     1      38.623  77.475  37.349  0.00  0.00    +0.017 A 
ATOM     11  C   UNL     1      37.304  77.353  36.986  0.00  0.00    +0.002 A 
ATOM     12  C   UNL     1      36.440  76.748  37.874  0.00  0.00    +0.007 A 
ATOM     13  C   UNL     1      36.912  76.288  39.082  0.00  0.00    +0.081 A 
ATOM     14  C   UNL     1      38.263  76.427  39.421  0.00  0.00    +0.023 A 
BRANCH  13  15
ATOM     15  C   UNL     1      35.999  75.650  40.018  0.00  0.00    +0.388 C 
ATOM     16  O   UNL     1      34.777  75.554  39.756  0.00  0.00    -0.241 OA
ATOM     17  O   UNL     1      36.449  75.140  41.207  0.00  0.00    -0.241 OA
ENDBRANCH  13  15
ENDBRANCH   8   9
ENDBRANCH   3   6
BRANCH   1  18
ATOM     18  S   UNL     1      45.891  78.637  40.422  0.00  0.00    -0.116 S 
BRANCH  18  27
ATOM     19  C   UNL     1      46.856  80.823  43.193  0.00  0.00    +0.007 C 
ATOM     20  C   UNL     1      47.673  80.264  42.051  0.00  0.00    +0.049 C 
ATOM     21  C   UNL     1      48.624  81.296  41.487  0.00  0.00    +0.096 C 
ATOM     22  C   UNL     1      49.069  82.412  42.349  0.00  0.00    +0.126 C 
ATOM     23  C   UNL     1      48.252  83.319  41.506  0.00  0.00    +0.233 C 
ATOM     24  O   UNL     1      48.183  84.547  41.371  0.00  0.00    -0.274 OA
ATOM     25  N   UNL     1      47.586  82.210  40.924  0.00  0.00    -0.254 N 
ATOM     26  C   UNL     1      46.731  81.285  40.243  0.00  0.00    +0.136 C 
ATOM     27  C   UNL     1      46.753  80.115  40.874  0.00  0.00    +0.024 C 
BRANCH  26  28
ATOM     28  C   UNL     1      45.964  81.637  39.037  0.00  0.00    +0.401 C 
ATOM     29  O   UNL     1      45.021  80.924  38.616  0.00  0.00    -0.239 OA
ATOM     30  O   UNL     1      46.265  82.776  38.324  0.00  0.00    -0.239 OA
ENDBRANCH  26  28
BRANCH  22  31
ATOM     31  C   UNL     1      50.562  82.677  42.087  0.00  0.00    +0.162 C 
ATOM     32  C   UNL     1      51.019  83.943  42.735  0.00  0.00    +0.036 C 
ATOM     33  O   UNL     1      50.809  82.772  40.716  0.00  0.00    -0.223 OA
ENDBRANCH  22  31
ENDBRANCH  18  27
ENDBRANCH   1  18
TORSDOF 7
