REMARK  Name = Erythrityl_Tetranitrate
REMARK  11 active torsions:
REMARK  status: ('A' for Active; 'I' for Inactive)
REMARK    1  A    between atoms: C_1  and  C_2
REMARK    2  A    between atoms: C_1  and  O_17
REMARK    3  A    between atoms: C_2  and  C_3
REMARK    4  A    between atoms: C_2  and  O_13
REMARK    5  A    between atoms: C_3  and  C_4
REMARK    6  A    between atoms: C_3  and  O_9
REMARK    7  A    between atoms: C_4  and  O_5
REMARK    8  A    between atoms: O_5  and  N_6
REMARK    9  A    between atoms: O_9  and  N_10
REMARK   10  A    between atoms: O_13  and  N_14
REMARK   11  A    between atoms: O_17  and  N_18
REMARK                            x       y       z     vdW  Elec       q    Type
REMARK                         _______ _______ _______ _____ _____    ______ ____
ROOT
ATOM      1  C   UNL     1      48.647  81.871  42.587  0.00  0.00    +0.293 C 
ENDROOT
BRANCH   1   2
ATOM      2  C   UNL     1      49.976  81.428  42.102  0.00  0.00    +0.293 C 
BRANCH   2   3
ATOM      3  O   UNL     1      50.788  82.397  41.538  0.00  0.00    -0.332 OA
BRANCH   3   4
ATOM      4  N   UNL     1      51.879  82.841  42.216  0.00  0.00    +0.218 N 
ATOM      5  O   UNL     1      52.778  83.422  41.608  0.00  0.00    -0.090 OA
ATOM      6  O   UNL     1      51.976  82.646  43.558  0.00  0.00    -0.090 OA
ENDBRANCH   3   4
ENDBRANCH   2   3
ENDBRANCH   1   2
BRANCH   1   7
ATOM      7  C   UNL     1      47.481  81.441  41.739  0.00  0.00    +0.293 C 
BRANCH   7   8
ATOM      8  C   UNL     1      47.428  82.140  40.398  0.00  0.00    +0.293 C 
BRANCH   8   9
ATOM      9  O   UNL     1      46.359  81.505  39.676  0.00  0.00    -0.332 OA
BRANCH   9  10
ATOM     10  N   UNL     1      45.858  82.084  38.517  0.00  0.00    +0.218 N 
ATOM     11  O   UNL     1      44.836  81.669  37.958  0.00  0.00    -0.090 OA
ATOM     12  O   UNL     1      46.515  83.156  37.964  0.00  0.00    -0.090 OA
ENDBRANCH   9  10
ENDBRANCH   8   9
ENDBRANCH   7   8
BRANCH   7  13
ATOM     13  O   UNL     1      47.677  80.073  41.455  0.00  0.00    -0.332 OA
BRANCH  13  14
ATOM     14  N   UNL     1      46.971  79.151  42.182  0.00  0.00    +0.218 N 
ATOM     15  O   UNL     1      47.460  78.037  42.498  0.00  0.00    -0.090 OA
ATOM     16  O   UNL     1      45.681  79.395  42.608  0.00  0.00    -0.090 OA
ENDBRANCH  13  14
ENDBRANCH   7  13
ENDBRANCH   1   7
BRANCH   1  17
ATOM     17  O   UNL     1      48.646  83.299  42.550  0.00  0.00    -0.332 OA
BRANCH  17  18
ATOM     18  N   UNL     1      47.788  83.992  43.367  0.00  0.00    +0.218 N 
ATOM     19  O   UNL     1      47.409  85.156  43.124  0.00  0.00    -0.090 OA
ATOM     20  O   UNL     1      47.314  83.395  44.509  0.00  0.00    -0.090 OA
ENDBRANCH  17  18
ENDBRANCH   1  17
TORSDOF 11
