REMARK  Name = Erythromycin
REMARK  7 active torsions:
REMARK  status: ('A' for Active; 'I' for Inactive)
REMARK    1  A    between atoms: C_2  and  C_3
REMARK    2  A    between atoms: C_12  and  O_33
REMARK    3  A    between atoms: C_14  and  O_20
REMARK    4  A    between atoms: O_20  and  C_21
REMARK    5  A    between atoms: C_23  and  O_30
REMARK    6  A    between atoms: O_33  and  C_34
REMARK    7  A    between atoms: C_36  and  N_41
REMARK                            x       y       z     vdW  Elec       q    Type
REMARK                         _______ _______ _______ _____ _____    ______ ____
ROOT
ATOM      1  C   UNL     1      43.202  75.185  40.202  0.00  0.00    +0.199 C 
ATOM      2  C   UNL     1      41.841  75.713  39.815  0.00  0.00    +0.191 C 
ATOM      3  C   UNL     1      41.567  77.138  40.025  0.00  0.00    +0.190 C 
ATOM      4  C   UNL     1      41.795  78.091  38.902  0.00  0.00    +0.091 C 
ATOM      5  C   UNL     1      42.404  79.335  39.443  0.00  0.00    +0.152 C 
ATOM      6  O   UNL     1      42.107  79.577  40.602  0.00  0.00    -0.296 OA
ATOM      7  C   UNL     1      43.283  80.252  38.752  0.00  0.00    +0.060 C 
ATOM      8  C   UNL     1      44.679  80.430  39.198  0.00  0.00    +0.040 C 
ATOM      9  C   UNL     1      45.523  79.192  39.157  0.00  0.00    +0.152 C 
ATOM     10  C   UNL     1      46.742  79.161  39.985  0.00  0.00    +0.148 C 
ATOM     11  C   UNL     1      46.636  78.627  41.389  0.00  0.00    +0.058 C 
ATOM     12  C   UNL     1      47.120  77.252  41.639  0.00  0.00    +0.131 C 
ATOM     13  C   UNL     1      46.344  76.044  41.450  0.00  0.00    +0.126 C 
ATOM     14  C   UNL     1      44.940  75.967  41.888  0.00  0.00    +0.319 C 
ATOM     15  O   UNL     1      44.800  76.039  43.180  0.00  0.00    -0.250 OA
ATOM     16  O   UNL     1      43.798  75.839  41.228  0.00  0.00    -0.450 OA
ATOM     17  C   UNL     1      46.529  75.400  40.085  0.00  0.00    +0.014 C 
ATOM     18  C   UNL     1      45.468  79.111  42.169  0.00  0.00    +0.005 C 
ATOM     19  C   UNL     1      45.972  79.079  37.697  0.00  0.00    +0.035 C 
ATOM     20  O   UNL     1      44.706  78.183  39.541  0.00  0.00    -0.223 OA
ATOM     21  C   UNL     1      42.628  81.643  38.780  0.00  0.00    +0.008 C 
ATOM     22  C   UNL     1      40.473  78.544  38.260  0.00  0.00    +0.010 C 
ATOM     23  O   UNL     1      42.210  77.516  41.226  0.00  0.00    -0.220 OA
ATOM     24  C   UNL     1      41.571  75.380  38.344  0.00  0.00    +0.039 C 
ATOM     25  O   UNL     1      40.820  75.021  40.512  0.00  0.00    -0.219 OA
ENDROOT
BRANCH   1  27
ATOM     26  C   UNL     1      42.658  73.201  41.699  0.00  0.00    +0.004 C 
ATOM     27  C   UNL     1      43.073  73.684  40.364  0.00  0.00    +0.046 C 
ENDBRANCH   1  27
BRANCH  12  28
ATOM     28  O   UNL     1      47.813  77.156  42.875  0.00  0.00    -0.332 OA
BRANCH  28  29
ATOM     29  C   UNL     1      48.715  76.191  43.043  0.00  0.00    +0.238 C 
ATOM     30  C   UNL     1      49.302  76.391  44.444  0.00  0.00    +0.091 C 
ATOM     31  C   UNL     1      50.827  76.212  44.420  0.00  0.00    +0.128 C 
ATOM     32  C   UNL     1      51.456  77.208  43.513  0.00  0.00    +0.204 C 
ATOM     33  C   UNL     1      50.533  77.413  42.343  0.00  0.00    +0.150 C 
ATOM     34  O   UNL     1      49.811  76.237  42.181  0.00  0.00    -0.330 OA
ATOM     35  C   UNL     1      51.238  77.731  41.059  0.00  0.00    +0.035 C 
ATOM     36  O   UNL     1      52.687  76.827  43.092  0.00  0.00    -0.218 OA
ATOM     37  C   UNL     1      51.258  76.627  45.840  0.00  0.00    +0.033 C 
BRANCH  31  38
ATOM     38  O   UNL     1      51.099  74.903  44.288  0.00  0.00    -0.353 OA
ATOM     39  C   UNL     1      50.595  73.954  45.107  0.00  0.00    +0.174 C 
ENDBRANCH  31  38
ENDBRANCH  28  29
ENDBRANCH  12  28
BRANCH  10  40
ATOM     40  O   UNL     1      47.267  80.479  39.950  0.00  0.00    -0.328 OA
BRANCH  40  41
ATOM     41  C   UNL     1      48.103  80.766  40.992  0.00  0.00    +0.268 C 
ATOM     42  C   UNL     1      47.342  81.581  42.027  0.00  0.00    +0.222 C 
ATOM     43  C   UNL     1      48.230  82.585  42.703  0.00  0.00    +0.096 C 
ATOM     44  C   UNL     1      49.557  81.869  42.953  0.00  0.00    +0.048 C 
ATOM     45  C   UNL     1      50.160  81.540  41.629  0.00  0.00    +0.119 C 
ATOM     46  O   UNL     1      49.266  81.424  40.596  0.00  0.00    -0.331 OA
ATOM     47  C   UNL     1      50.960  80.244  41.831  0.00  0.00    +0.032 C 
ATOM     48  O   UNL     1      46.226  82.106  41.422  0.00  0.00    -0.216 OA
BRANCH  43  49
ATOM     49  N   UNL     1      48.481  83.681  41.824  0.00  0.00    -0.269 NA
ATOM     50  C   UNL     1      49.630  84.473  42.222  0.00  0.00    +0.090 C 
ATOM     51  C   UNL     1      47.372  84.565  41.609  0.00  0.00    +0.090 C 
ENDBRANCH  43  49
ENDBRANCH  40  41
ENDBRANCH  10  40
TORSDOF 7
