REMARK  Name = Erythromycin/sulfisoxazole
REMARK  10 active torsions:
REMARK  status: ('A' for Active; 'I' for Inactive)
REMARK    1  A    between atoms: C_2  and  C_3
REMARK    2  A    between atoms: C_12  and  O_33
REMARK    3  A    between atoms: C_14  and  O_20
REMARK    4  A    between atoms: O_20  and  C_21
REMARK    5  A    between atoms: C_23  and  O_30
REMARK    6  A    between atoms: O_33  and  C_34
REMARK    7  A    between atoms: C_36  and  N_41
REMARK    8  A    between atoms: C_54  and  N_59
REMARK    9  A    between atoms: N_59  and  S_60
REMARK   10  A    between atoms: S_60  and  C_63
REMARK                            x       y       z     vdW  Elec       q    Type
REMARK                         _______ _______ _______ _____ _____    ______ ____
ROOT
ATOM      1  C   UNL     1      48.316  80.623  41.878  0.00  0.00    +0.199 C 
ATOM      2  C   UNL     1      49.708  80.933  41.373  0.00  0.00    +0.191 C 
ATOM      3  C   UNL     1      50.548  79.643  41.220  0.00  0.00    +0.190 C 
ATOM      4  C   UNL     1      50.559  78.780  42.401  0.00  0.00    +0.091 C 
ATOM      5  C   UNL     1      49.750  77.564  42.459  0.00  0.00    +0.152 C 
ATOM      6  O   UNL     1      49.268  77.329  43.596  0.00  0.00    -0.296 OA
ATOM      7  C   UNL     1      49.418  76.593  41.422  0.00  0.00    +0.060 C 
ATOM      8  C   UNL     1      48.132  76.903  40.649  0.00  0.00    +0.040 C 
ATOM      9  C   UNL     1      46.952  76.254  41.261  0.00  0.00    +0.152 C 
ATOM     10  C   UNL     1      45.605  76.465  40.707  0.00  0.00    +0.148 C 
ATOM     11  C   UNL     1      45.313  77.032  39.389  0.00  0.00    +0.058 C 
ATOM     12  C   UNL     1      45.057  78.432  39.116  0.00  0.00    +0.131 C 
ATOM     13  C   UNL     1      45.983  79.549  39.228  0.00  0.00    +0.126 C 
ATOM     14  C   UNL     1      46.148  80.137  40.613  0.00  0.00    +0.319 C 
ATOM     15  O   UNL     1      45.055  80.038  41.245  0.00  0.00    -0.250 OA
ATOM     16  O   UNL     1      47.332  80.641  40.946  0.00  0.00    -0.450 OA
ATOM     17  C   UNL     1      47.185  79.612  38.371  0.00  0.00    +0.014 C 
ATOM     18  C   UNL     1      46.072  76.292  38.277  0.00  0.00    +0.005 C 
ATOM     19  C   UNL     1      47.324  74.788  41.459  0.00  0.00    +0.035 C 
ATOM     20  O   UNL     1      46.928  76.774  42.589  0.00  0.00    -0.223 OA
ATOM     21  C   UNL     1      50.564  76.281  40.472  0.00  0.00    +0.008 C 
ATOM     22  C   UNL     1      51.995  78.374  42.777  0.00  0.00    +0.010 C 
ATOM     23  O   UNL     1      50.302  79.139  39.992  0.00  0.00    -0.220 OA
ATOM     24  C   UNL     1      50.462  81.925  42.226  0.00  0.00    +0.039 C 
ATOM     25  O   UNL     1      49.656  81.486  40.096  0.00  0.00    -0.219 OA
ENDROOT
BRANCH   1  27
ATOM     26  C   UNL     1      47.917  82.996  42.652  0.00  0.00    +0.004 C 
ATOM     27  C   UNL     1      47.926  81.554  43.044  0.00  0.00    +0.046 C 
ENDBRANCH   1  27
BRANCH  12  28
ATOM     28  O   UNL     1      43.848  78.856  39.705  0.00  0.00    -0.332 OA
BRANCH  28  29
ATOM     29  C   UNL     1      42.734  78.277  39.177  0.00  0.00    +0.238 C 
ATOM     30  C   UNL     1      42.556  78.305  37.707  0.00  0.00    +0.091 C 
ATOM     31  C   UNL     1      41.512  77.217  37.372  0.00  0.00    +0.128 C 
ATOM     32  C   UNL     1      42.277  75.924  37.446  0.00  0.00    +0.204 C 
ATOM     33  C   UNL     1      43.226  76.070  38.635  0.00  0.00    +0.150 C 
ATOM     34  O   UNL     1      42.742  76.930  39.581  0.00  0.00    -0.330 OA
ATOM     35  C   UNL     1      43.341  74.701  39.270  0.00  0.00    +0.035 C 
ATOM     36  O   UNL     1      43.048  75.716  36.300  0.00  0.00    -0.218 OA
ATOM     37  C   UNL     1      40.890  77.469  36.031  0.00  0.00    +0.033 C 
BRANCH  31  38
ATOM     38  O   UNL     1      40.602  77.266  38.415  0.00  0.00    -0.353 OA
ATOM     39  C   UNL     1      39.326  76.886  38.117  0.00  0.00    +0.174 C 
ENDBRANCH  31  38
ENDBRANCH  28  29
ENDBRANCH  12  28
BRANCH  10  40
ATOM     40  O   UNL     1      44.722  76.987  41.658  0.00  0.00    -0.328 OA
BRANCH  40  41
ATOM     41  C   UNL     1      44.107  76.039  42.439  0.00  0.00    +0.268 C 
ATOM     42  C   UNL     1      44.649  75.963  43.837  0.00  0.00    +0.222 C 
ATOM     43  C   UNL     1      43.697  75.063  44.618  0.00  0.00    +0.096 C 
ATOM     44  C   UNL     1      43.835  73.698  44.008  0.00  0.00    +0.048 C 
ATOM     45  C   UNL     1      44.392  73.734  42.614  0.00  0.00    +0.119 C 
ATOM     46  O   UNL     1      44.065  74.808  41.872  0.00  0.00    -0.331 OA
ATOM     47  C   UNL     1      43.836  72.497  41.885  0.00  0.00    +0.032 C 
ATOM     48  O   UNL     1      45.914  75.422  43.932  0.00  0.00    -0.216 OA
BRANCH  43  49
ATOM     49  N   UNL     1      43.821  75.156  46.017  0.00  0.00    -0.269 NA
ATOM     50  C   UNL     1      45.124  75.114  46.579  0.00  0.00    +0.090 C 
ATOM     51  C   UNL     1      42.785  74.525  46.775  0.00  0.00    +0.090 C 
ENDBRANCH  43  49
ENDBRANCH  40  41
ENDBRANCH  10  40
TORSDOF 7
REMARK  Name = Erythromycin/sulfisoxazole
REMARK  10 active torsions:
REMARK  status: ('A' for Active; 'I' for Inactive)
REMARK    1  A    between atoms: C_2  and  C_3
REMARK    2  A    between atoms: C_12  and  O_33
REMARK    3  A    between atoms: C_14  and  O_20
REMARK    4  A    between atoms: O_20  and  C_21
REMARK    5  A    between atoms: C_23  and  O_30
REMARK    6  A    between atoms: O_33  and  C_34
REMARK    7  A    between atoms: C_36  and  N_41
REMARK    8  A    between atoms: C_54  and  N_59
REMARK    9  A    between atoms: N_59  and  S_60
REMARK   10  A    between atoms: S_60  and  C_63
REMARK                            x       y       z     vdW  Elec       q    Type
REMARK                         _______ _______ _______ _____ _____    ______ ____
ROOT
ATOM      1  S   UNL     1      43.935  79.090  42.546  0.00  0.00    +0.096 S 
ATOM      2  O   UNL     1      43.803  79.312  44.028  0.00  0.00    -0.148 OA
ATOM      3  O   UNL     1      42.801  79.853  41.886  0.00  0.00    -0.148 OA
ENDROOT
BRANCH   1   4
ATOM      4  C   UNL     1      43.715  77.410  42.190  0.00  0.00    +0.127 A 
ATOM      5  C   UNL     1      44.708  76.756  41.492  0.00  0.00    +0.022 A 
ATOM      6  C   UNL     1      44.623  75.405  41.161  0.00  0.00    +0.019 A 
ATOM      7  C   UNL     1      43.496  74.731  41.559  0.00  0.00    +0.089 A 
ATOM      8  C   UNL     1      42.490  75.369  42.259  0.00  0.00    +0.019 A 
ATOM      9  C   UNL     1      42.589  76.698  42.577  0.00  0.00    +0.022 A 
ATOM     10  N   UNL     1      43.393  73.364  41.233  0.00  0.00    -0.128 NA
ENDBRANCH   1   4
BRANCH   1  11
ATOM     11  N   UNL     1      45.395  79.742  41.949  0.00  0.00    -0.057 NA
BRANCH  11  14
ATOM     12  C   UNL     1      46.989  82.324  42.607  0.00  0.00    +0.037 C 
ATOM     13  C   UNL     1      46.065  82.115  41.489  0.00  0.00    +0.050 A 
ATOM     14  C   UNL     1      45.356  80.952  41.205  0.00  0.00    +0.263 A 
ATOM     15  O   UNL     1      44.668  81.232  40.123  0.00  0.00    -0.336 OA
ATOM     16  N   UNL     1      44.860  82.423  39.699  0.00  0.00    -0.080 NA
ATOM     17  C   UNL     1      45.721  83.017  40.513  0.00  0.00    +0.098 A 
ATOM     18  C   UNL     1      46.199  84.426  40.348  0.00  0.00    +0.055 C 
ENDBRANCH  11  14
ENDBRANCH   1  11
TORSDOF 3
