REMARK  Name = Eslicarbazepine
REMARK  0 active torsions:
REMARK  status: ('A' for Active; 'I' for Inactive)
REMARK                            x       y       z     vdW  Elec       q    Type
REMARK                         _______ _______ _______ _____ _____    ______ ____
ROOT
ATOM      1  C   UNL     1      48.073  79.139  41.495  0.00  0.00    +0.065 C 
ATOM      2  C   UNL     1      46.758  78.471  41.674  0.00  0.00    +0.180 C 
ATOM      3  C   UNL     1      45.621  78.906  40.881  0.00  0.00    +0.022 A 
ATOM      4  C   UNL     1      44.590  77.957  40.965  0.00  0.00    -0.001 A 
ATOM      5  C   UNL     1      43.380  78.169  40.344  0.00  0.00    -0.000 A 
ATOM      6  C   UNL     1      43.150  79.333  39.619  0.00  0.00    +0.001 A 
ATOM      7  C   UNL     1      44.156  80.291  39.522  0.00  0.00    +0.015 A 
ATOM      8  C   UNL     1      45.346  80.037  40.151  0.00  0.00    +0.058 A 
ATOM      9  N   UNL     1      46.256  81.119  39.891  0.00  0.00    -0.220 N 
ATOM     10  C   UNL     1      47.288  81.504  40.836  0.00  0.00    +0.056 A 
ATOM     11  C   UNL     1      47.392  82.867  40.938  0.00  0.00    +0.015 A 
ATOM     12  C   UNL     1      48.332  83.424  41.799  0.00  0.00    +0.001 A 
ATOM     13  C   UNL     1      49.128  82.561  42.521  0.00  0.00    -0.000 A 
ATOM     14  C   UNL     1      49.012  81.179  42.409  0.00  0.00    -0.003 A 
ATOM     15  C   UNL     1      48.071  80.614  41.546  0.00  0.00    -0.005 A 
ATOM     16  C   UNL     1      46.264  81.828  38.704  0.00  0.00    +0.350 C 
ATOM     17  O   UNL     1      45.367  81.732  37.793  0.00  0.00    -0.248 OA
ATOM     18  N   UNL     1      47.287  82.765  38.373  0.00  0.00    -0.069 NA
ATOM     19  O   UNL     1      46.938  77.082  41.469  0.00  0.00    -0.218 OA
ENDROOT
TORSDOF 0
