REMARK  Name = Esmolol
REMARK  10 active torsions:
REMARK  status: ('A' for Active; 'I' for Inactive)
REMARK    1  A    between atoms: C_2  and  N_4
REMARK    2  A    between atoms: N_4  and  C_5
REMARK    3  A    between atoms: C_5  and  C_6
REMARK    4  A    between atoms: C_6  and  C_7
REMARK    5  A    between atoms: C_7  and  O_8
REMARK    6  A    between atoms: O_8  and  C_9
REMARK    7  A    between atoms: C_12  and  C_15
REMARK    8  A    between atoms: C_15  and  C_16
REMARK    9  A    between atoms: C_16  and  C_17
REMARK   10  A    between atoms: C_17  and  O_19
REMARK                            x       y       z     vdW  Elec       q    Type
REMARK                         _______ _______ _______ _____ _____    ______ ____
ROOT
ATOM      1  C   UNL     1      44.040  79.359  39.381  0.00  0.00    +0.139 A 
ATOM      2  C   UNL     1      43.967  78.194  40.102  0.00  0.00    +0.037 A 
ATOM      3  C   UNL     1      43.123  77.161  39.681  0.00  0.00    -0.001 A 
ATOM      4  C   UNL     1      42.342  77.258  38.553  0.00  0.00    -0.021 A 
ATOM      5  C   UNL     1      42.412  78.427  37.826  0.00  0.00    -0.001 A 
ATOM      6  C   UNL     1      43.234  79.444  38.228  0.00  0.00    +0.037 A 
ENDROOT
BRANCH   1   7
ATOM      7  O   UNL     1      44.842  80.406  39.725  0.00  0.00    -0.473 OA
BRANCH   7   8
ATOM      8  C   UNL     1      45.589  80.732  40.807  0.00  0.00    +0.240 C 
BRANCH   8   9
ATOM      9  C   UNL     1      46.513  81.887  40.542  0.00  0.00    +0.213 C 
ATOM     10  O   UNL     1      46.842  81.870  39.176  0.00  0.00    -0.218 OA
BRANCH   9  11
ATOM     11  C   UNL     1      47.706  81.793  41.441  0.00  0.00    +0.125 C 
BRANCH  11  12
ATOM     12  N   UNL     1      48.653  82.818  41.120  0.00  0.00    -0.217 NA
BRANCH  12  14
ATOM     13  C   UNL     1      49.563  83.565  43.234  0.00  0.00    +0.019 C 
ATOM     14  C   UNL     1      49.773  82.658  42.055  0.00  0.00    +0.073 C 
ATOM     15  C   UNL     1      51.024  83.066  41.288  0.00  0.00    +0.019 C 
ENDBRANCH  12  14
ENDBRANCH  11  12
ENDBRANCH   9  11
ENDBRANCH   8   9
ENDBRANCH   7   8
ENDBRANCH   1   7
BRANCH   4  16
ATOM     16  C   UNL     1      41.452  76.129  38.138  0.00  0.00    +0.038 C 
BRANCH  16  17
ATOM     17  C   UNL     1      40.018  76.504  38.403  0.00  0.00    +0.114 C 
BRANCH  17  18
ATOM     18  C   UNL     1      39.155  75.916  37.363  0.00  0.00    +0.317 C 
ATOM     19  O   UNL     1      38.806  74.727  37.450  0.00  0.00    -0.250 OA
BRANCH  18  20
ATOM     20  O   UNL     1      38.739  76.685  36.298  0.00  0.00    -0.444 OA
ATOM     21  C   UNL     1      38.672  76.166  34.972  0.00  0.00    +0.256 C 
ENDBRANCH  18  20
ENDBRANCH  17  18
ENDBRANCH  16  17
ENDBRANCH   4  16
TORSDOF 10
