REMARK  Name = Esomeprazole
REMARK  5 active torsions:
REMARK  status: ('A' for Active; 'I' for Inactive)
REMARK    1  A    between atoms: C_5  and  C_11
REMARK    2  A    between atoms: C_7  and  O_8
REMARK    3  A    between atoms: C_11  and  S_12
REMARK    4  A    between atoms: S_12  and  C_14
REMARK    5  A    between atoms: C_20  and  O_23
REMARK                            x       y       z     vdW  Elec       q    Type
REMARK                         _______ _______ _______ _____ _____    ______ ____
ROOT
ATOM      1  S   UNL     1      46.384  81.335  39.229  0.00  0.00    +0.107 S 
ATOM      2  O   UNL     1      45.802  82.462  38.345  0.00  0.00    -0.248 OA
ENDROOT
BRANCH   1   3
ATOM      3  C   UNL     1      45.075  80.108  39.206  0.00  0.00    +0.221 A 
ATOM      4  N   UNL     1      45.060  78.969  39.962  0.00  0.00    -0.218 NA
ATOM      5  C   UNL     1      43.945  78.262  39.718  0.00  0.00    +0.101 A 
ATOM      6  C   UNL     1      43.236  78.980  38.777  0.00  0.00    +0.104 A 
ATOM      7  N   UNL     1      43.940  80.080  38.492  0.00  0.00    -0.218 NA
ATOM      8  C   UNL     1      42.040  78.492  38.333  0.00  0.00    +0.058 A 
ATOM      9  C   UNL     1      41.514  77.284  38.806  0.00  0.00    +0.140 A 
ATOM     10  C   UNL     1      42.215  76.573  39.737  0.00  0.00    +0.039 A 
ATOM     11  C   UNL     1      43.421  77.067  40.183  0.00  0.00    +0.024 A 
BRANCH   9  12
ATOM     12  O   UNL     1      40.307  76.802  38.351  0.00  0.00    -0.471 OA
ATOM     13  C   UNL     1      40.068  76.748  36.962  0.00  0.00    +0.252 C 
ENDBRANCH   9  12
ENDBRANCH   1   3
BRANCH   1  14
ATOM     14  C   UNL     1      46.221  82.090  40.905  0.00  0.00    +0.145 C 
BRANCH  14  19
ATOM     15  C   UNL     1      51.541  83.458  42.696  0.00  0.00    +0.036 C 
ATOM     16  C   UNL     1      50.163  83.116  42.248  0.00  0.00    +0.031 A 
ATOM     17  C   UNL     1      49.949  82.302  41.149  0.00  0.00    +0.097 A 
ATOM     18  N   UNL     1      48.705  81.975  40.719  0.00  0.00    -0.248 NA
ATOM     19  C   UNL     1      47.591  82.429  41.347  0.00  0.00    +0.072 A 
ATOM     20  C   UNL     1      47.768  83.240  42.443  0.00  0.00    +0.026 A 
ATOM     21  C   UNL     1      49.040  83.586  42.897  0.00  0.00    +0.133 A 
ATOM     22  C   UNL     1      46.615  83.767  43.164  0.00  0.00    +0.035 C 
BRANCH  21  23
ATOM     23  O   UNL     1      49.183  84.393  43.988  0.00  0.00    -0.472 OA
ATOM     24  C   UNL     1      49.177  85.791  43.982  0.00  0.00    +0.252 C 
ENDBRANCH  21  23
ENDBRANCH  14  19
ENDBRANCH   1  14
TORSDOF 5
