REMARK  Name = Estazolam
REMARK  1 active torsions:
REMARK  status: ('A' for Active; 'I' for Inactive)
REMARK    1  A    between atoms: C_14  and  C_16
REMARK                            x       y       z     vdW  Elec       q    Type
REMARK                         _______ _______ _______ _____ _____    ______ ____
ROOT
ATOM      1  C   UNL     1      44.262  81.449  39.930  0.00  0.00    +0.191 C 
ATOM      2  C   UNL     1      45.355  81.830  38.982  0.00  0.00    +0.172 A 
ATOM      3  N   UNL     1      45.224  82.385  37.764  0.00  0.00    -0.131 NA
ATOM      4  N   UNL     1      46.454  82.581  37.259  0.00  0.00    -0.125 NA
ATOM      5  C   UNL     1      47.386  82.163  38.127  0.00  0.00    +0.207 A 
ATOM      6  N   UNL     1      46.696  81.706  39.177  0.00  0.00    -0.273 N 
ATOM      7  C   UNL     1      47.298  81.153  40.368  0.00  0.00    +0.068 A 
ATOM      8  C   UNL     1      46.715  80.227  41.199  0.00  0.00    +0.034 A 
ATOM      9  C   UNL     1      47.334  79.838  42.358  0.00  0.00    +0.014 A 
ATOM     10  C   UNL     1      48.567  80.418  42.634  0.00  0.00    +0.058 A 
ATOM     11  C   UNL     1      49.144  81.341  41.792  0.00  0.00    +0.013 A 
ATOM     12  C   UNL     1      48.507  81.737  40.615  0.00  0.00    +0.019 A 
ATOM     13 CL   UNL     1      49.408  79.939  44.108  0.00  0.00    -0.082 Cl
ATOM     14  C   UNL     1      45.467  79.518  41.002  0.00  0.00    +0.078 C 
ATOM     15  N   UNL     1      44.411  80.089  40.443  0.00  0.00    -0.262 NA
ENDROOT
BRANCH  14  16
ATOM     16  C   UNL     1      45.326  78.150  41.442  0.00  0.00    +0.017 A 
ATOM     17  C   UNL     1      44.401  77.642  42.294  0.00  0.00    +0.001 A 
ATOM     18  C   UNL     1      44.288  76.297  42.599  0.00  0.00    +0.000 A 
ATOM     19  C   UNL     1      45.153  75.392  42.022  0.00  0.00    +0.000 A 
ATOM     20  C   UNL     1      46.119  75.859  41.145  0.00  0.00    +0.000 A 
ATOM     21  C   UNL     1      46.191  77.192  40.874  0.00  0.00    +0.001 A 
ENDBRANCH  14  16
TORSDOF 1
