REMARK  Name = Estradiol_valerate/dienogest
REMARK  7 active torsions:
REMARK  status: ('A' for Active; 'I' for Inactive)
REMARK    1  A    between atoms: C_2  and  C_3
REMARK    2  A    between atoms: C_3  and  C_4
REMARK    3  A    between atoms: C_4  and  C_5
REMARK    4  A    between atoms: C_5  and  O_7
REMARK    5  A    between atoms: O_7  and  C_8
REMARK    6  A    between atoms: C_45  and  C_46
REMARK    7  A    between atoms: C_46  and  C_47
REMARK                            x       y       z     vdW  Elec       q    Type
REMARK                         _______ _______ _______ _____ _____    ______ ____
ROOT
ATOM      1  C   UNL     1      45.885  78.974  40.427  0.00  0.00    +0.169 C 
ATOM      2  C   UNL     1      46.479  78.053  41.441  0.00  0.00    +0.044 C 
ATOM      3  C   UNL     1      47.028  78.907  42.549  0.00  0.00    +0.004 C 
ATOM      4  C   UNL     1      46.740  80.339  42.179  0.00  0.00    +0.004 C 
ATOM      5  C   UNL     1      46.577  80.300  40.681  0.00  0.00    +0.037 C 
ATOM      6  C   UNL     1      47.877  80.268  39.939  0.00  0.00    +0.004 C 
ATOM      7  C   UNL     1      48.949  81.134  40.509  0.00  0.00    +0.004 C 
ATOM      8  C   UNL     1      48.404  82.069  41.562  0.00  0.00    +0.022 C 
ATOM      9  C   UNL     1      47.747  81.305  42.683  0.00  0.00    +0.004 C 
ATOM     10  C   UNL     1      48.834  80.652  43.518  0.00  0.00    +0.005 C 
ATOM     11  C   UNL     1      49.566  81.763  44.235  0.00  0.00    +0.026 C 
ATOM     12  C   UNL     1      49.966  82.843  43.298  0.00  0.00    -0.023 A 
ATOM     13  C   UNL     1      49.433  83.000  42.045  0.00  0.00    -0.026 A 
ATOM     14  C   UNL     1      49.883  84.047  41.254  0.00  0.00    -0.001 A 
ATOM     15  C   UNL     1      50.848  84.925  41.700  0.00  0.00    +0.042 A 
ATOM     16  C   UNL     1      51.371  84.752  42.958  0.00  0.00    +0.195 A 
ATOM     17  C   UNL     1      50.937  83.724  43.749  0.00  0.00    +0.037 A 
ATOM     18  O   UNL     1      52.353  85.617  43.455  0.00  0.00    -0.287 OA
ATOM     19  C   UNL     1      45.645  81.383  40.180  0.00  0.00    +0.004 C 
ENDROOT
BRANCH   1  20
ATOM     20  O   UNL     1      44.494  79.083  40.460  0.00  0.00    -0.452 OA
BRANCH  20  21
ATOM     21  C   UNL     1      43.623  78.006  40.498  0.00  0.00    +0.317 C 
ATOM     22  O   UNL     1      43.705  77.253  41.457  0.00  0.00    -0.250 OA
BRANCH  21  23
ATOM     23  C   UNL     1      42.669  77.842  39.396  0.00  0.00    +0.110 C 
BRANCH  23  24
ATOM     24  C   UNL     1      42.107  76.451  39.396  0.00  0.00    +0.012 C 
BRANCH  24  26
ATOM     25  C   UNL     1      40.485  74.796  38.492  0.00  0.00    +0.000 C 
ATOM     26  C   UNL     1      40.981  76.239  38.440  0.00  0.00    +0.001 C 
ENDBRANCH  24  26
ENDBRANCH  23  24
ENDBRANCH  21  23
ENDBRANCH  20  21
ENDBRANCH   1  20
TORSDOF 5
REMARK  Name = Estradiol_valerate/dienogest
REMARK  7 active torsions:
REMARK  status: ('A' for Active; 'I' for Inactive)
REMARK    1  A    between atoms: C_2  and  C_3
REMARK    2  A    between atoms: C_3  and  C_4
REMARK    3  A    between atoms: C_4  and  C_5
REMARK    4  A    between atoms: C_5  and  O_7
REMARK    5  A    between atoms: O_7  and  C_8
REMARK    6  A    between atoms: C_45  and  C_46
REMARK    7  A    between atoms: C_46  and  C_47
REMARK                            x       y       z     vdW  Elec       q    Type
REMARK                         _______ _______ _______ _____ _____    ______ ____
ROOT
ATOM      1  C   UNL     1      49.115  81.191  40.024  0.00  0.00    +0.002 C 
ATOM      2  C   UNL     1      48.322  81.243  41.304  0.00  0.00    +0.027 C 
ATOM      3  C   UNL     1      47.963  79.858  41.800  0.00  0.00    +0.007 C 
ATOM      4  C   UNL     1      47.149  79.098  40.775  0.00  0.00    +0.022 C 
ATOM      5  C   UNL     1      46.037  79.948  40.313  0.00  0.00    -0.049 C 
ATOM      6  C   UNL     1      44.998  79.337  39.752  0.00  0.00    -0.033 C 
ATOM      7  C   UNL     1      44.990  77.857  39.610  0.00  0.00    +0.034 C 
ATOM      8  C   UNL     1      44.019  77.367  38.585  0.00  0.00    +0.074 C 
ATOM      9  C   UNL     1      43.401  78.403  37.755  0.00  0.00    +0.173 C 
ATOM     10  O   UNL     1      43.129  78.163  36.555  0.00  0.00    -0.291 OA
ATOM     11  C   UNL     1      43.099  79.709  38.314  0.00  0.00    +0.033 C 
ATOM     12  C   UNL     1      43.880  80.155  39.284  0.00  0.00    -0.024 C 
ATOM     13  C   UNL     1      43.590  81.496  39.875  0.00  0.00    +0.026 C 
ATOM     14  C   UNL     1      44.599  81.759  41.001  0.00  0.00    +0.009 C 
ATOM     15  C   UNL     1      45.974  81.407  40.418  0.00  0.00    +0.018 C 
ATOM     16  C   UNL     1      47.080  82.044  41.166  0.00  0.00    +0.006 C 
ATOM     17  C   UNL     1      46.716  82.356  42.607  0.00  0.00    +0.003 C 
ATOM     18  C   UNL     1      47.959  82.196  43.419  0.00  0.00    +0.032 C 
ATOM     19  C   UNL     1      49.058  81.940  42.422  0.00  0.00    +0.141 C 
ATOM     20  O   UNL     1      50.095  81.189  42.941  0.00  0.00    -0.225 OA
ENDROOT
BRANCH  19  21
ATOM     21  C   UNL     1      49.616  83.280  42.003  0.00  0.00    +0.136 C 
BRANCH  21  22
ATOM     22  C   UNL     1      50.977  83.364  42.548  0.00  0.00    +0.076 C 
ATOM     23  N   UNL     1      52.046  83.432  42.998  0.00  0.00    -0.196 NA
ENDBRANCH  21  22
ENDBRANCH  19  21
TORSDOF 2
