REMARK  Name = Estrone
REMARK  0 active torsions:
REMARK  status: ('A' for Active; 'I' for Inactive)
REMARK                            x       y       z     vdW  Elec       q    Type
REMARK                         _______ _______ _______ _____ _____    ______ ____
ROOT
ATOM      1  C   UNL     1      51.798  82.921  41.736  0.00  0.00    +0.007 C 
ATOM      2  C   UNL     1      50.815  82.613  42.868  0.00  0.00    +0.052 C 
ATOM      3  C   UNL     1      50.591  81.127  43.006  0.00  0.00    +0.007 C 
ATOM      4  C   UNL     1      49.373  80.626  42.298  0.00  0.00    +0.005 C 
ATOM      5  C   UNL     1      48.106  81.355  42.703  0.00  0.00    +0.022 C 
ATOM      6  C   UNL     1      48.369  82.713  43.245  0.00  0.00    +0.005 C 
ATOM      7  C   UNL     1      49.566  83.382  42.614  0.00  0.00    +0.007 C 
ATOM      8  C   UNL     1      49.803  84.721  43.220  0.00  0.00    +0.008 C 
ATOM      9  C   UNL     1      51.093  84.662  44.009  0.00  0.00    +0.064 C 
ATOM     10  C   UNL     1      51.371  83.203  44.098  0.00  0.00    +0.150 C 
ATOM     11  O   UNL     1      51.933  82.577  44.977  0.00  0.00    -0.296 OA
ATOM     12  C   UNL     1      47.137  83.545  43.134  0.00  0.00    +0.005 C 
ATOM     13  C   UNL     1      46.834  83.841  41.681  0.00  0.00    +0.026 C 
ATOM     14  C   UNL     1      46.674  82.535  41.004  0.00  0.00    -0.023 A 
ATOM     15  C   UNL     1      47.263  81.403  41.484  0.00  0.00    -0.026 A 
ATOM     16  C   UNL     1      47.096  80.163  40.819  0.00  0.00    -0.001 A 
ATOM     17  C   UNL     1      46.339  80.075  39.679  0.00  0.00    +0.042 A 
ATOM     18  C   UNL     1      45.747  81.225  39.201  0.00  0.00    +0.195 A 
ATOM     19  C   UNL     1      45.901  82.430  39.836  0.00  0.00    +0.037 A 
ATOM     20  O   UNL     1      44.984  81.144  38.055  0.00  0.00    -0.287 OA
ENDROOT
TORSDOF 0
