REMARK  Name = Estradiol
REMARK  0 active torsions:
REMARK  status: ('A' for Active; 'I' for Inactive)
REMARK                            x       y       z     vdW  Elec       q    Type
REMARK                         _______ _______ _______ _____ _____    ______ ____
ROOT
ATOM      1  C   UNL     1      51.491  84.196  42.809  0.00  0.00    +0.003 C 
ATOM      2  C   UNL     1      50.218  83.330  42.880  0.00  0.00    +0.028 C 
ATOM      3  C   UNL     1      49.077  84.209  42.530  0.00  0.00    +0.003 C 
ATOM      4  C   UNL     1      47.941  83.572  41.828  0.00  0.00    +0.004 C 
ATOM      5  C   UNL     1      48.323  82.451  40.914  0.00  0.00    +0.022 C 
ATOM      6  C   UNL     1      49.249  81.449  41.498  0.00  0.00    +0.004 C 
ATOM      7  C   UNL     1      50.441  82.135  42.068  0.00  0.00    +0.003 C 
ATOM      8  C   UNL     1      51.221  81.200  42.997  0.00  0.00    +0.003 C 
ATOM      9  C   UNL     1      51.046  81.725  44.382  0.00  0.00    +0.033 C 
ATOM     10  C   UNL     1      50.150  82.913  44.348  0.00  0.00    +0.152 C 
ATOM     11  O   UNL     1      50.666  83.963  45.143  0.00  0.00    -0.223 OA
ATOM     12  C   UNL     1      48.608  80.463  42.428  0.00  0.00    +0.005 C 
ATOM     13  C   UNL     1      47.128  80.430  42.398  0.00  0.00    +0.026 C 
ATOM     14  C   UNL     1      46.529  80.804  41.093  0.00  0.00    -0.023 A 
ATOM     15  C   UNL     1      47.119  81.807  40.352  0.00  0.00    -0.026 A 
ATOM     16  C   UNL     1      46.590  82.182  39.133  0.00  0.00    -0.001 A 
ATOM     17  C   UNL     1      45.472  81.537  38.681  0.00  0.00    +0.042 A 
ATOM     18  C   UNL     1      44.866  80.532  39.404  0.00  0.00    +0.195 A 
ATOM     19  C   UNL     1      45.392  80.156  40.621  0.00  0.00    +0.037 A 
ATOM     20  O   UNL     1      43.716  79.904  38.887  0.00  0.00    -0.287 OA
ENDROOT
TORSDOF 0
