REMARK  Name = Estradiol_Valerate
REMARK  5 active torsions:
REMARK  status: ('A' for Active; 'I' for Inactive)
REMARK    1  A    between atoms: C_2  and  C_3
REMARK    2  A    between atoms: C_3  and  C_4
REMARK    3  A    between atoms: C_4  and  C_5
REMARK    4  A    between atoms: C_5  and  O_7
REMARK    5  A    between atoms: O_7  and  C_8
REMARK                            x       y       z     vdW  Elec       q    Type
REMARK                         _______ _______ _______ _____ _____    ______ ____
ROOT
ATOM      1  C   UNL     1      51.094  82.327  43.149  0.00  0.00    +0.169 C 
ATOM      2  C   UNL     1      51.432  80.866  43.318  0.00  0.00    +0.044 C 
ATOM      3  C   UNL     1      50.108  80.128  43.274  0.00  0.00    +0.004 C 
ATOM      4  C   UNL     1      49.077  81.152  42.970  0.00  0.00    +0.004 C 
ATOM      5  C   UNL     1      49.887  82.246  42.285  0.00  0.00    +0.037 C 
ATOM      6  C   UNL     1      48.980  83.446  42.294  0.00  0.00    +0.004 C 
ATOM      7  C   UNL     1      47.914  83.126  41.238  0.00  0.00    +0.004 C 
ATOM      8  C   UNL     1      47.171  81.912  41.599  0.00  0.00    +0.022 C 
ATOM      9  C   UNL     1      47.979  80.724  42.074  0.00  0.00    +0.004 C 
ATOM     10  C   UNL     1      47.007  79.868  42.897  0.00  0.00    +0.005 C 
ATOM     11  C   UNL     1      45.598  79.917  42.396  0.00  0.00    +0.026 C 
ATOM     12  C   UNL     1      45.468  80.326  40.974  0.00  0.00    -0.023 A 
ATOM     13  C   UNL     1      46.278  81.367  40.563  0.00  0.00    -0.026 A 
ATOM     14  C   UNL     1      46.197  81.793  39.259  0.00  0.00    -0.001 A 
ATOM     15  C   UNL     1      45.322  81.200  38.350  0.00  0.00    +0.042 A 
ATOM     16  C   UNL     1      44.539  80.171  38.806  0.00  0.00    +0.195 A 
ATOM     17  C   UNL     1      44.583  79.707  40.108  0.00  0.00    +0.037 A 
ATOM     18  O   UNL     1      43.664  79.579  37.894  0.00  0.00    -0.287 OA
ATOM     19  C   UNL     1      50.293  81.893  40.881  0.00  0.00    +0.004 C 
ENDROOT
BRANCH   1  20
ATOM     20  O   UNL     1      50.992  83.030  44.330  0.00  0.00    -0.452 OA
BRANCH  20  21
ATOM     21  C   UNL     1      51.722  84.174  44.690  0.00  0.00    +0.317 C 
ATOM     22  O   UNL     1      52.348  84.695  43.771  0.00  0.00    -0.250 OA
BRANCH  21  23
ATOM     23  C   UNL     1      51.659  84.618  46.104  0.00  0.00    +0.110 C 
BRANCH  23  24
ATOM     24  C   UNL     1      52.820  85.456  46.470  0.00  0.00    +0.012 C 
BRANCH  24  26
ATOM     25  C   UNL     1      53.849  85.391  48.674  0.00  0.00    +0.000 C 
ATOM     26  C   UNL     1      52.799  86.086  47.815  0.00  0.00    +0.001 C 
ENDBRANCH  24  26
ENDBRANCH  23  24
ENDBRANCH  21  23
ENDBRANCH  20  21
ENDBRANCH   1  20
TORSDOF 5
