REMARK  Name = Estradiol_Acetate
REMARK  2 active torsions:
REMARK  status: ('A' for Active; 'I' for Inactive)
REMARK    1  A    between atoms: C_2  and  O_4
REMARK    2  A    between atoms: O_4  and  C_5
REMARK                            x       y       z     vdW  Elec       q    Type
REMARK                         _______ _______ _______ _____ _____    ______ ____
ROOT
ATOM      1  C   UNL     1      44.913  79.558  40.337  0.00  0.00    +0.148 A 
ATOM      2  C   UNL     1      45.156  80.886  40.090  0.00  0.00    +0.033 A 
ATOM      3  C   UNL     1      46.256  81.581  40.635  0.00  0.00    -0.023 A 
ATOM      4  C   UNL     1      47.137  80.935  41.448  0.00  0.00    -0.026 A 
ATOM      5  C   UNL     1      46.886  79.572  41.701  0.00  0.00    -0.001 A 
ATOM      6  C   UNL     1      45.807  78.913  41.159  0.00  0.00    +0.037 A 
ATOM      7  C   UNL     1      48.315  81.575  42.064  0.00  0.00    +0.022 C 
ATOM      8  C   UNL     1      49.604  80.835  41.739  0.00  0.00    +0.004 C 
ATOM      9  C   UNL     1      50.614  81.313  42.760  0.00  0.00    +0.003 C 
ATOM     10  C   UNL     1      50.770  82.784  42.722  0.00  0.00    +0.028 C 
ATOM     11  C   UNL     1      49.834  83.551  41.858  0.00  0.00    +0.003 C 
ATOM     12  C   UNL     1      48.427  83.031  41.810  0.00  0.00    +0.004 C 
ATOM     13  C   UNL     1      47.873  83.390  40.424  0.00  0.00    +0.005 C 
ATOM     14  C   UNL     1      46.434  83.023  40.310  0.00  0.00    +0.026 C 
ATOM     15  C   UNL     1      49.837  84.914  42.540  0.00  0.00    +0.003 C 
ATOM     16  C   UNL     1      49.797  84.598  44.016  0.00  0.00    +0.033 C 
ATOM     17  C   UNL     1      50.685  83.381  44.112  0.00  0.00    +0.152 C 
ATOM     18  O   UNL     1      50.118  82.445  44.980  0.00  0.00    -0.223 OA
ATOM     19  C   UNL     1      52.188  83.087  42.214  0.00  0.00    +0.003 C 
ENDROOT
BRANCH   1  20
ATOM     20  O   UNL     1      43.809  78.945  39.763  0.00  0.00    -0.424 OA
BRANCH  20  22
ATOM     21  C   UNL     1      42.261  78.420  37.854  0.00  0.00    +0.122 C 
ATOM     22  C   UNL     1      43.343  79.239  38.509  0.00  0.00    +0.322 C 
ATOM     23  O   UNL     1      43.856  80.226  37.923  0.00  0.00    -0.250 OA
ENDBRANCH  20  22
ENDBRANCH   1  20
TORSDOF 2
