REMARK  Name = Estriol
REMARK  0 active torsions:
REMARK  status: ('A' for Active; 'I' for Inactive)
REMARK                            x       y       z     vdW  Elec       q    Type
REMARK                         _______ _______ _______ _____ _____    ______ ____
ROOT
ATOM      1  C   UNL     1      51.340  82.288  41.469  0.00  0.00    +0.003 C 
ATOM      2  C   UNL     1      50.173  82.245  42.465  0.00  0.00    +0.031 C 
ATOM      3  C   UNL     1      49.792  80.861  42.807  0.00  0.00    +0.003 C 
ATOM      4  C   UNL     1      48.393  80.467  42.431  0.00  0.00    +0.004 C 
ATOM      5  C   UNL     1      48.114  80.976  41.063  0.00  0.00    +0.022 C 
ATOM      6  C   UNL     1      48.093  82.483  41.068  0.00  0.00    +0.005 C 
ATOM      7  C   UNL     1      49.100  83.118  41.937  0.00  0.00    +0.005 C 
ATOM      8  C   UNL     1      48.474  83.791  43.163  0.00  0.00    +0.036 C 
ATOM      9  C   UNL     1      49.695  84.067  43.997  0.00  0.00    +0.182 C 
ATOM     10  C   UNL     1      50.672  82.945  43.720  0.00  0.00    +0.182 C 
ATOM     11  O   UNL     1      50.665  82.111  44.827  0.00  0.00    -0.220 OA
ATOM     12  O   UNL     1      50.280  85.253  43.585  0.00  0.00    -0.220 OA
ATOM     13  C   UNL     1      48.154  82.939  39.631  0.00  0.00    +0.005 C 
ATOM     14  C   UNL     1      47.118  82.313  38.777  0.00  0.00    +0.026 C 
ATOM     15  C   UNL     1      46.365  81.217  39.392  0.00  0.00    -0.023 A 
ATOM     16  C   UNL     1      46.806  80.534  40.506  0.00  0.00    -0.026 A 
ATOM     17  C   UNL     1      46.061  79.528  41.028  0.00  0.00    -0.001 A 
ATOM     18  C   UNL     1      44.860  79.187  40.444  0.00  0.00    +0.042 A 
ATOM     19  C   UNL     1      44.373  79.841  39.325  0.00  0.00    +0.195 A 
ATOM     20  C   UNL     1      45.161  80.858  38.826  0.00  0.00    +0.037 A 
ATOM     21  O   UNL     1      43.154  79.485  38.745  0.00  0.00    -0.287 OA
ENDROOT
TORSDOF 0
