REMARK  Name = Estradiol_Cypionate
REMARK  5 active torsions:
REMARK  status: ('A' for Active; 'I' for Inactive)
REMARK    1  A    between atoms: C_10  and  O_11
REMARK    2  A    between atoms: O_11  and  C_12
REMARK    3  A    between atoms: C_12  and  C_14
REMARK    4  A    between atoms: C_14  and  C_15
REMARK    5  A    between atoms: C_15  and  C_16
REMARK                            x       y       z     vdW  Elec       q    Type
REMARK                         _______ _______ _______ _____ _____    ______ ____
ROOT
ATOM      1  C   UNL     1      50.400  81.567  41.144  0.00  0.00    +0.004 C 
ATOM      2  C   UNL     1      49.953  82.073  42.503  0.00  0.00    +0.037 C 
ATOM      3  C   UNL     1      49.528  80.894  43.346  0.00  0.00    +0.004 C 
ATOM      4  C   UNL     1      48.371  80.219  42.639  0.00  0.00    +0.004 C 
ATOM      5  C   UNL     1      47.187  81.153  42.525  0.00  0.00    +0.022 C 
ATOM      6  C   UNL     1      47.524  82.563  42.852  0.00  0.00    +0.004 C 
ATOM      7  C   UNL     1      48.815  83.038  42.267  0.00  0.00    +0.004 C 
ATOM      8  C   UNL     1      49.261  84.290  43.033  0.00  0.00    +0.004 C 
ATOM      9  C   UNL     1      50.747  84.264  42.742  0.00  0.00    +0.044 C 
ATOM     10  C   UNL     1      51.091  82.835  43.111  0.00  0.00    +0.169 C 
ATOM     11  C   UNL     1      46.423  83.509  42.415  0.00  0.00    +0.005 C 
ATOM     12  C   UNL     1      46.291  83.565  40.927  0.00  0.00    +0.026 C 
ATOM     13  C   UNL     1      46.245  82.165  40.406  0.00  0.00    -0.023 A 
ATOM     14  C   UNL     1      46.656  81.081  41.138  0.00  0.00    -0.026 A 
ATOM     15  C   UNL     1      46.564  79.812  40.532  0.00  0.00    -0.001 A 
ATOM     16  C   UNL     1      46.082  79.670  39.256  0.00  0.00    +0.042 A 
ATOM     17  C   UNL     1      45.666  80.747  38.507  0.00  0.00    +0.195 A 
ATOM     18  C   UNL     1      45.756  81.981  39.100  0.00  0.00    +0.037 A 
ATOM     19  O   UNL     1      45.175  80.610  37.212  0.00  0.00    -0.287 OA
ENDROOT
BRANCH  10  20
ATOM     20  O   UNL     1      51.055  82.788  44.542  0.00  0.00    -0.452 OA
BRANCH  20  21
ATOM     21  C   UNL     1      52.186  82.492  45.288  0.00  0.00    +0.317 C 
ATOM     22  O   UNL     1      53.289  82.547  44.694  0.00  0.00    -0.250 OA
BRANCH  21  23
ATOM     23  C   UNL     1      52.157  82.120  46.720  0.00  0.00    +0.110 C 
BRANCH  23  24
ATOM     24  C   UNL     1      53.376  82.659  47.389  0.00  0.00    +0.012 C 
BRANCH  24  25
ATOM     25  C   UNL     1      53.326  82.572  48.893  0.00  0.00    +0.001 C 
ATOM     26  C   UNL     1      54.251  83.644  49.434  0.00  0.00    +0.000 C 
ATOM     27  C   UNL     1      55.257  82.976  50.319  0.00  0.00    +0.000 C 
ATOM     28  C   UNL     1      55.388  81.601  49.663  0.00  0.00    +0.000 C 
ATOM     29  C   UNL     1      53.916  81.285  49.412  0.00  0.00    +0.000 C 
ENDBRANCH  24  25
ENDBRANCH  23  24
ENDBRANCH  21  23
ENDBRANCH  20  21
ENDBRANCH  10  20
TORSDOF 5
