REMARK  Name = Estropipate
REMARK  2 active torsions:
REMARK  status: ('A' for Active; 'I' for Inactive)
REMARK    1  A    between atoms: C_18  and  O_20
REMARK    2  A    between atoms: O_20  and  S_21
REMARK                            x       y       z     vdW  Elec       q    Type
REMARK                         _______ _______ _______ _____ _____    ______ ____
ROOT
ATOM      1  C   UNL     1      48.345  83.517  43.195  0.00  0.00    +0.007 C 
ATOM      2  C   UNL     1      48.906  82.297  42.504  0.00  0.00    +0.052 C 
ATOM      3  C   UNL     1      48.554  81.022  43.180  0.00  0.00    +0.007 C 
ATOM      4  C   UNL     1      47.510  80.216  42.466  0.00  0.00    +0.005 C 
ATOM      5  C   UNL     1      46.422  81.013  41.836  0.00  0.00    +0.022 C 
ATOM      6  C   UNL     1      46.896  82.272  41.169  0.00  0.00    +0.005 C 
ATOM      7  C   UNL     1      48.387  82.190  41.061  0.00  0.00    +0.007 C 
ATOM      8  C   UNL     1      49.050  83.340  40.409  0.00  0.00    +0.008 C 
ATOM      9  C   UNL     1      50.422  83.419  41.096  0.00  0.00    +0.064 C 
ATOM     10  C   UNL     1      50.335  82.513  42.261  0.00  0.00    +0.150 C 
ATOM     11  O   UNL     1      51.251  82.044  42.888  0.00  0.00    -0.296 OA
ATOM     12  C   UNL     1      46.243  82.585  39.878  0.00  0.00    +0.005 C 
ATOM     13  C   UNL     1      44.826  82.077  39.768  0.00  0.00    +0.026 C 
ATOM     14  C   UNL     1      44.909  80.584  39.870  0.00  0.00    -0.023 A 
ATOM     15  C   UNL     1      45.698  80.098  40.892  0.00  0.00    -0.026 A 
ATOM     16  C   UNL     1      45.803  78.729  41.023  0.00  0.00    -0.001 A 
ATOM     17  C   UNL     1      45.135  77.891  40.154  0.00  0.00    +0.040 A 
ATOM     18  C   UNL     1      44.345  78.378  39.130  0.00  0.00    +0.175 A 
ATOM     19  C   UNL     1      44.251  79.752  39.013  0.00  0.00    +0.035 A 
ENDROOT
BRANCH  18  20
ATOM     20  O   UNL     1      43.673  77.513  38.256  0.00  0.00    -0.322 OA
BRANCH  20  21
ATOM     21  S   UNL     1      42.123  76.989  38.788  0.00  0.00    +0.282 S 
ATOM     22  O   UNL     1      41.059  77.971  38.396  0.00  0.00    -0.105 OA
ATOM     23  O   UNL     1      42.198  76.967  40.304  0.00  0.00    -0.105 OA
ATOM     24  O   UNL     1      41.731  75.496  38.181  0.00  0.00    -0.012 OA
ENDBRANCH  20  21
ENDBRANCH  18  20
TORSDOF 2
REMARK  Name = Estropipate
REMARK  2 active torsions:
REMARK  status: ('A' for Active; 'I' for Inactive)
REMARK    1  A    between atoms: C_18  and  O_20
REMARK    2  A    between atoms: O_20  and  S_21
REMARK                            x       y       z     vdW  Elec       q    Type
REMARK                         _______ _______ _______ _____ _____    ______ ____
ROOT
ATOM      1  C   UNL     1      47.985  81.859  40.973  0.00  0.00    +0.108 C 
ATOM      2  C   UNL     1      47.930  81.047  39.697  0.00  0.00    +0.108 C 
ATOM      3  N   UNL     1      46.542  81.071  39.250  0.00  0.00    -0.215 NA
ATOM      4  C   UNL     1      45.694  80.303  40.130  0.00  0.00    +0.108 C 
ATOM      5  C   UNL     1      46.210  80.328  41.524  0.00  0.00    +0.108 C 
ATOM      6  N   UNL     1      46.947  81.501  41.875  0.00  0.00    -0.215 NA
ENDROOT
TORSDOF 0
