REMARK  Name = Estramustine
REMARK  6 active torsions:
REMARK  status: ('A' for Active; 'I' for Inactive)
REMARK    1  A    between atoms: C_18  and  O_20
REMARK    2  A    between atoms: O_20  and  C_21
REMARK    3  A    between atoms: N_23  and  C_24
REMARK    4  A    between atoms: N_23  and  C_27
REMARK    5  A    between atoms: C_24  and  C_25
REMARK    6  A    between atoms: C_27  and  C_28
REMARK                            x       y       z     vdW  Elec       q    Type
REMARK                         _______ _______ _______ _____ _____    ______ ____
ROOT
ATOM      1  C   UNL     1      49.048  84.766  43.578  0.00  0.00    +0.003 C 
ATOM      2  C   UNL     1      49.702  83.737  42.658  0.00  0.00    +0.028 C 
ATOM      3  C   UNL     1      49.401  84.105  41.254  0.00  0.00    +0.003 C 
ATOM      4  C   UNL     1      48.100  83.527  40.720  0.00  0.00    +0.004 C 
ATOM      5  C   UNL     1      48.171  82.043  40.964  0.00  0.00    +0.022 C 
ATOM      6  C   UNL     1      48.105  81.811  42.432  0.00  0.00    +0.004 C 
ATOM      7  C   UNL     1      49.353  82.361  43.066  0.00  0.00    +0.003 C 
ATOM      8  C   UNL     1      50.588  81.570  42.810  0.00  0.00    +0.003 C 
ATOM      9  C   UNL     1      51.672  82.490  43.356  0.00  0.00    +0.033 C 
ATOM     10  C   UNL     1      51.216  83.839  42.847  0.00  0.00    +0.152 C 
ATOM     11  O   UNL     1      51.858  84.057  41.632  0.00  0.00    -0.223 OA
ATOM     12  C   UNL     1      47.916  80.398  42.860  0.00  0.00    +0.005 C 
ATOM     13  C   UNL     1      47.846  79.428  41.700  0.00  0.00    +0.026 C 
ATOM     14  C   UNL     1      46.969  79.953  40.627  0.00  0.00    -0.023 A 
ATOM     15  C   UNL     1      47.135  81.275  40.258  0.00  0.00    -0.026 A 
ATOM     16  C   UNL     1      46.334  81.756  39.272  0.00  0.00    -0.001 A 
ATOM     17  C   UNL     1      45.389  80.938  38.667  0.00  0.00    +0.037 A 
ATOM     18  C   UNL     1      45.214  79.622  39.025  0.00  0.00    +0.150 A 
ATOM     19  C   UNL     1      46.030  79.125  40.032  0.00  0.00    +0.033 A 
ENDROOT
BRANCH  18  20
ATOM     20  O   UNL     1      44.286  78.768  38.452  0.00  0.00    -0.410 OA
BRANCH  20  21
ATOM     21  C   UNL     1      42.912  79.001  38.465  0.00  0.00    +0.409 C 
ATOM     22  O   UNL     1      42.556  80.218  38.385  0.00  0.00    -0.226 OA
ATOM     23  N   UNL     1      41.969  77.947  38.563  0.00  0.00    -0.243 N 
BRANCH  23  24
ATOM     24  C   UNL     1      40.608  78.176  38.135  0.00  0.00    +0.114 C 
BRANCH  24  25
ATOM     25  C   UNL     1      40.455  77.950  36.643  0.00  0.00    +0.116 C 
ATOM     26 CL   UNL     1      38.761  78.162  36.153  0.00  0.00    -0.112 Cl
ENDBRANCH  24  25
ENDBRANCH  23  24
BRANCH  23  27
ATOM     27  C   UNL     1      42.322  76.646  39.077  0.00  0.00    +0.114 C 
BRANCH  27  28
ATOM     28  C   UNL     1      42.468  76.656  40.586  0.00  0.00    +0.116 C 
ATOM     29 CL   UNL     1      42.962  75.023  41.089  0.00  0.00    -0.112 Cl
ENDBRANCH  27  28
ENDBRANCH  23  27
ENDBRANCH  20  21
ENDBRANCH  18  20
TORSDOF 6
