REMARK  Name = Eszopiclone
REMARK  2 active torsions:
REMARK  status: ('A' for Active; 'I' for Inactive)
REMARK    1  A    between atoms: C_8  and  O_10
REMARK    2  A    between atoms: O_10  and  C_11
REMARK                            x       y       z     vdW  Elec       q    Type
REMARK                         _______ _______ _______ _____ _____    ______ ____
ROOT
ATOM      1  C   UNL     1      45.990  79.290  40.547  0.00  0.00    +0.299 C 
ATOM      2  C   UNL     1      44.833  78.912  39.721  0.00  0.00    +0.141 A 
ATOM      3  N   UNL     1      44.180  77.707  39.570  0.00  0.00    -0.239 NA
ATOM      4  C   UNL     1      43.133  77.595  38.748  0.00  0.00    +0.119 A 
ATOM      5  C   UNL     1      42.726  78.717  38.057  0.00  0.00    +0.120 A 
ATOM      6  N   UNL     1      43.346  79.901  38.187  0.00  0.00    -0.236 NA
ATOM      7  C   UNL     1      44.418  80.011  39.030  0.00  0.00    +0.154 A 
ATOM      8  C   UNL     1      45.278  81.129  39.378  0.00  0.00    +0.276 C 
ATOM      9  O   UNL     1      45.167  82.309  38.911  0.00  0.00    -0.268 OA
ATOM     10  N   UNL     1      46.232  80.660  40.309  0.00  0.00    -0.200 N 
ATOM     11  C   UNL     1      47.258  81.508  40.881  0.00  0.00    +0.141 A 
ATOM     12  N   UNL     1      48.267  81.022  41.621  0.00  0.00    -0.228 NA
ATOM     13  C   UNL     1      49.229  81.789  42.161  0.00  0.00    +0.112 A 
ATOM     14  C   UNL     1      49.200  83.135  41.959  0.00  0.00    +0.077 A 
ATOM     15  C   UNL     1      48.195  83.709  41.209  0.00  0.00    +0.016 A 
ATOM     16  C   UNL     1      47.228  82.869  40.676  0.00  0.00    +0.036 A 
ATOM     17 CL   UNL     1      50.465  84.143  42.669  0.00  0.00    -0.081 Cl
ENDROOT
BRANCH   1  18
ATOM     18  O   UNL     1      45.815  78.959  41.909  0.00  0.00    -0.412 OA
BRANCH  18  26
ATOM     19  C   UNL     1      45.903  73.000  43.522  0.00  0.00    +0.090 C 
ATOM     20  N   UNL     1      45.510  73.893  42.440  0.00  0.00    -0.269 NA
ATOM     21  C   UNL     1      44.201  74.429  42.634  0.00  0.00    +0.094 C 
ATOM     22  C   UNL     1      44.184  75.836  43.185  0.00  0.00    +0.114 C 
ATOM     23  N   UNL     1      44.961  76.686  42.309  0.00  0.00    -0.243 N 
ATOM     24  C   UNL     1      45.954  76.046  41.474  0.00  0.00    +0.114 C 
ATOM     25  C   UNL     1      46.535  74.871  42.269  0.00  0.00    +0.094 C 
ATOM     26  C   UNL     1      44.787  78.089  42.243  0.00  0.00    +0.407 C 
ATOM     27  O   UNL     1      43.644  78.573  42.499  0.00  0.00    -0.226 OA
ENDBRANCH  18  26
ENDBRANCH   1  18
TORSDOF 2
