REMARK  Name = Etanidazole
REMARK  4 active torsions:
REMARK  status: ('A' for Active; 'I' for Inactive)
REMARK    1  A    between atoms: N_3  and  C_9
REMARK    2  A    between atoms: C_9  and  C_10
REMARK    3  A    between atoms: N_12  and  C_13
REMARK    4  A    between atoms: C_13  and  C_14
REMARK                            x       y       z     vdW  Elec       q    Type
REMARK                         _______ _______ _______ _____ _____    ______ ____
ROOT
ATOM      1  C   UNL     1      46.574  79.679  41.566  0.00  0.00    +0.121 A 
ATOM      2  C   UNL     1      45.621  79.097  40.760  0.00  0.00    +0.100 A 
ATOM      3  N   UNL     1      45.398  79.932  39.701  0.00  0.00    -0.282 N 
ATOM      4  C   UNL     1      46.175  80.993  39.830  0.00  0.00    +0.293 A 
ATOM      5  N   UNL     1      46.890  80.828  40.975  0.00  0.00    -0.204 NA
ATOM      6  N   UNL     1      46.319  82.118  38.978  0.00  0.00    +0.093 N 
ATOM      7  O   UNL     1      47.106  83.059  39.181  0.00  0.00    -0.123 OA
ATOM      8  O   UNL     1      45.559  82.250  37.837  0.00  0.00    -0.123 OA
ENDROOT
BRANCH   3   9
ATOM      9  C   UNL     1      44.436  79.630  38.673  0.00  0.00    +0.196 C 
BRANCH   9  10
ATOM     10  C   UNL     1      43.458  78.584  39.048  0.00  0.00    +0.265 C 
ATOM     11  O   UNL     1      43.653  77.907  40.119  0.00  0.00    -0.271 OA
ATOM     12  N   UNL     1      42.292  78.240  38.326  0.00  0.00    -0.201 NA
BRANCH  12  13
ATOM     13  C   UNL     1      41.616  76.954  38.523  0.00  0.00    +0.151 C 
BRANCH  13  14
ATOM     14  C   UNL     1      40.416  76.813  37.627  0.00  0.00    +0.205 C 
ATOM     15  O   UNL     1      40.806  76.667  36.298  0.00  0.00    -0.218 OA
ENDBRANCH  13  14
ENDBRANCH  12  13
ENDBRANCH   9  10
ENDBRANCH   3   9
TORSDOF 4
