REMARK  Name = Eterobarb
REMARK  6 active torsions:
REMARK  status: ('A' for Active; 'I' for Inactive)
REMARK    1  A    between atoms: C_2  and  C_3
REMARK    2  A    between atoms: C_3  and  C_18
REMARK    3  A    between atoms: N_6  and  C_15
REMARK    4  A    between atoms: N_9  and  C_12
REMARK    5  A    between atoms: C_12  and  O_13
REMARK    6  A    between atoms: C_15  and  O_16
REMARK                            x       y       z     vdW  Elec       q    Type
REMARK                         _______ _______ _______ _____ _____    ______ ____
ROOT
ATOM      1  C   UNL     1      48.320  82.882  42.496  0.00  0.00    +0.157 C 
ATOM      2  C   UNL     1      47.724  81.614  43.011  0.00  0.00    +0.246 C 
ATOM      3  O   UNL     1      47.584  81.451  44.240  0.00  0.00    -0.274 OA
ATOM      4  N   UNL     1      47.297  80.558  42.164  0.00  0.00    -0.186 N 
ATOM      5  C   UNL     1      47.144  80.808  40.790  0.00  0.00    +0.322 C 
ATOM      6  O   UNL     1      46.764  79.865  40.039  0.00  0.00    -0.251 OA
ATOM      7  N   UNL     1      47.407  82.098  40.238  0.00  0.00    -0.186 N 
ATOM      8  C   UNL     1      47.825  83.126  41.087  0.00  0.00    +0.246 C 
ATOM      9  O   UNL     1      47.794  84.308  40.677  0.00  0.00    -0.274 OA
ENDROOT
BRANCH   1  10
ATOM     10  C   UNL     1      49.797  82.780  42.456  0.00  0.00    -0.006 A 
ATOM     11  C   UNL     1      50.581  83.150  43.525  0.00  0.00    -0.003 A 
ATOM     12  C   UNL     1      51.960  83.069  43.503  0.00  0.00    -0.000 A 
ATOM     13  C   UNL     1      52.618  82.606  42.391  0.00  0.00    -0.000 A 
ATOM     14  C   UNL     1      51.858  82.228  41.304  0.00  0.00    -0.000 A 
ATOM     15  C   UNL     1      50.466  82.314  41.336  0.00  0.00    -0.003 A 
ENDBRANCH   1  10
BRANCH   1  17
ATOM     16  C   UNL     1      46.334  84.291  43.239  0.00  0.00    +0.001 C 
ATOM     17  C   UNL     1      47.785  84.022  43.285  0.00  0.00    +0.022 C 
ENDBRANCH   1  17
BRANCH   7  18
ATOM     18  C   UNL     1      47.241  82.327  38.814  0.00  0.00    +0.250 C 
BRANCH  18  19
ATOM     19  O   UNL     1      45.926  82.762  38.582  0.00  0.00    -0.331 OA
ATOM     20  C   UNL     1      45.877  83.570  37.459  0.00  0.00    +0.176 C 
ENDBRANCH  18  19
ENDBRANCH   7  18
BRANCH   4  21
ATOM     21  C   UNL     1      47.022  79.223  42.723  0.00  0.00    +0.250 C 
BRANCH  21  22
ATOM     22  O   UNL     1      45.835  78.802  42.139  0.00  0.00    -0.331 OA
ATOM     23  C   UNL     1      45.600  77.447  42.367  0.00  0.00    +0.176 C 
ENDBRANCH  21  22
ENDBRANCH   4  21
TORSDOF 6
