REMARK  Name = Ethanolamine_oleate
REMARK  16 active torsions:
REMARK  status: ('A' for Active; 'I' for Inactive)
REMARK    1  A    between atoms: C_2  and  C_3
REMARK    2  A    between atoms: C_3  and  C_4
REMARK    3  A    between atoms: C_4  and  C_5
REMARK    4  A    between atoms: C_5  and  C_6
REMARK    5  A    between atoms: C_6  and  C_7
REMARK    6  A    between atoms: C_7  and  C_8
REMARK    7  A    between atoms: C_8  and  C_9
REMARK    8  A    between atoms: C_10  and  C_11
REMARK    9  A    between atoms: C_11  and  C_12
REMARK   10  A    between atoms: C_12  and  C_13
REMARK   11  A    between atoms: C_13  and  C_14
REMARK   12  A    between atoms: C_14  and  C_15
REMARK   13  A    between atoms: C_15  and  C_16
REMARK   14  A    between atoms: C_16  and  C_17
REMARK   15  A    between atoms: C_17  and  C_18
REMARK   16  A    between atoms: CA_21  and  C_22
REMARK                            x       y       z     vdW  Elec       q    Type
REMARK                         _______ _______ _______ _____ _____    ______ ____
ROOT
ATOM      1  C   UNL     1      45.895  82.834  39.723  0.00  0.00    -0.031 C 
ATOM      2  C   UNL     1      44.794  82.326  39.260  0.00  0.00    -0.031 C 
ENDROOT
BRANCH   1   3
ATOM      3  C   UNL     1      47.149  82.119  39.877  0.00  0.00    +0.026 C 
BRANCH   3   4
ATOM      4  C   UNL     1      47.619  82.098  41.333  0.00  0.00    +0.005 C 
BRANCH   4   5
ATOM      5  C   UNL     1      47.833  83.479  41.862  0.00  0.00    +0.000 C 
BRANCH   5   6
ATOM      6  C   UNL     1      48.275  83.425  43.296  0.00  0.00    +0.000 C 
BRANCH   6   7
ATOM      7  C   UNL     1      49.552  82.663  43.466  0.00  0.00    +0.000 C 
BRANCH   7   8
ATOM      8  C   UNL     1      50.713  83.557  43.088  0.00  0.00    +0.000 C 
BRANCH   8  10
ATOM      9  C   UNL     1      52.477  82.100  42.115  0.00  0.00    +0.000 C 
ATOM     10  C   UNL     1      52.029  82.837  43.334  0.00  0.00    +0.000 C 
ENDBRANCH   8  10
ENDBRANCH   7   8
ENDBRANCH   6   7
ENDBRANCH   5   6
ENDBRANCH   4   5
ENDBRANCH   3   4
ENDBRANCH   1   3
BRANCH   2  11
ATOM     11  C   UNL     1      44.531  80.948  38.787  0.00  0.00    +0.026 C 
BRANCH  11  12
ATOM     12  C   UNL     1      43.434  80.394  39.673  0.00  0.00    +0.005 C 
BRANCH  12  13
ATOM     13  C   UNL     1      43.057  78.975  39.303  0.00  0.00    +0.000 C 
BRANCH  13  14
ATOM     14  C   UNL     1      42.562  78.852  37.905  0.00  0.00    +0.000 C 
BRANCH  14  15
ATOM     15  C   UNL     1      42.216  77.424  37.583  0.00  0.00    +0.001 C 
BRANCH  15  16
ATOM     16  C   UNL     1      41.151  76.925  38.499  0.00  0.00    +0.012 C 
BRANCH  16  17
ATOM     17  C   UNL     1      40.758  75.491  38.204  0.00  0.00    +0.114 C 
BRANCH  17  18
ATOM     18  C   UNL     1      39.675  75.080  39.122  0.00  0.00    +0.365 C 
ATOM     19  O   UNL     1      39.889  74.484  40.211  0.00  0.00    -0.246 OA
ATOM     20  O   UNL     1      38.358  75.354  38.791  0.00  0.00    -0.246 OA
ENDBRANCH  17  18
ENDBRANCH  16  17
ENDBRANCH  15  16
ENDBRANCH  14  15
ENDBRANCH  13  14
ENDBRANCH  12  13
ENDBRANCH  11  12
ENDBRANCH   2  11
TORSDOF 15
REMARK  Name = Ethanolamine_oleate
REMARK  16 active torsions:
REMARK  status: ('A' for Active; 'I' for Inactive)
REMARK    1  A    between atoms: C_2  and  C_3
REMARK    2  A    between atoms: C_3  and  C_4
REMARK    3  A    between atoms: C_4  and  C_5
REMARK    4  A    between atoms: C_5  and  C_6
REMARK    5  A    between atoms: C_6  and  C_7
REMARK    6  A    between atoms: C_7  and  C_8
REMARK    7  A    between atoms: C_8  and  C_9
REMARK    8  A    between atoms: C_10  and  C_11
REMARK    9  A    between atoms: C_11  and  C_12
REMARK   10  A    between atoms: C_12  and  C_13
REMARK   11  A    between atoms: C_13  and  C_14
REMARK   12  A    between atoms: C_14  and  C_15
REMARK   13  A    between atoms: C_15  and  C_16
REMARK   14  A    between atoms: C_16  and  C_17
REMARK   15  A    between atoms: C_17  and  C_18
REMARK   16  A    between atoms: CA_21  and  C_22
REMARK                            x       y       z     vdW  Elec       q    Type
REMARK                         _______ _______ _______ _____ _____    ______ ____
ROOT
ATOM      1  CA  GLY A   1      45.460  80.799  39.813  0.00  0.00    +0.145 C 
ATOM      2  N   GLY A   1      46.268  81.011  38.672  0.00  0.00    -0.129 NA
ENDROOT
BRANCH   1   3
ATOM      3  C   GLY A   1      46.233  81.290  41.039  0.00  0.00    +0.203 C 
ATOM      4  O   GLY A   1      47.212  80.307  41.285  0.00  0.00    -0.219 OA
ENDBRANCH   1   3
TORSDOF 1
