REMARK  Name = Ethacrynic_acid
REMARK  6 active torsions:
REMARK  status: ('A' for Active; 'I' for Inactive)
REMARK    1  A    between atoms: C_2  and  C_3
REMARK    2  A    between atoms: C_3  and  C_5
REMARK    3  A    between atoms: C_5  and  C_7
REMARK    4  A    between atoms: C_10  and  O_13
REMARK    5  A    between atoms: O_13  and  C_14
REMARK    6  A    between atoms: C_14  and  C_15
REMARK                            x       y       z     vdW  Elec       q    Type
REMARK                         _______ _______ _______ _____ _____    ______ ____
ROOT
ATOM      1  C   UNL     1      44.835  80.298  39.061  0.00  0.00    +0.050 A 
ATOM      2  C   UNL     1      44.622  79.374  40.102  0.00  0.00    +0.074 A 
ATOM      3  C   UNL     1      43.710  78.369  40.074  0.00  0.00    +0.102 A 
ATOM      4  C   UNL     1      42.907  78.204  38.956  0.00  0.00    +0.151 A 
ATOM      5  C   UNL     1      43.068  79.075  37.908  0.00  0.00    +0.038 A 
ATOM      6  C   UNL     1      44.014  80.092  37.974  0.00  0.00    +0.007 A 
ATOM      7 CL   UNL     1      43.483  77.247  41.391  0.00  0.00    -0.078 Cl
ATOM      8 CL   UNL     1      45.587  79.489  41.572  0.00  0.00    -0.081 Cl
ENDROOT
BRANCH   1   9
ATOM      9  C   UNL     1      45.828  81.310  39.215  0.00  0.00    +0.192 C 
ATOM     10  O   UNL     1      45.497  82.451  38.654  0.00  0.00    -0.287 OA
BRANCH   9  11
ATOM     11  C   UNL     1      47.098  81.352  39.844  0.00  0.00    +0.017 C 
ATOM     12  C   UNL     1      47.807  80.460  40.479  0.00  0.00    -0.001 C 
BRANCH  11  14
ATOM     13  C   UNL     1      48.081  83.054  41.245  0.00  0.00    +0.005 C 
ATOM     14  C   UNL     1      47.832  82.706  39.794  0.00  0.00    +0.030 C 
ENDBRANCH  11  14
ENDBRANCH   9  11
ENDBRANCH   1   9
BRANCH   4  15
ATOM     15  O   UNL     1      41.972  77.187  38.911  0.00  0.00    -0.463 OA
BRANCH  15  16
ATOM     16  C   UNL     1      41.116  77.040  37.827  0.00  0.00    +0.319 C 
BRANCH  16  17
ATOM     17  C   UNL     1      40.227  75.874  38.064  0.00  0.00    +0.408 C 
ATOM     18  O   UNL     1      39.303  75.642  37.249  0.00  0.00    -0.241 OA
ATOM     19  O   UNL     1      40.374  75.030  39.151  0.00  0.00    -0.241 OA
ENDBRANCH  16  17
ENDBRANCH  15  16
ENDBRANCH   4  15
TORSDOF 6
