REMARK  Name = Ethionamide
REMARK  2 active torsions:
REMARK  status: ('A' for Active; 'I' for Inactive)
REMARK    1  A    between atoms: C_2  and  C_3
REMARK    2  A    between atoms: C_7  and  C_9
REMARK                            x       y       z     vdW  Elec       q    Type
REMARK                         _______ _______ _______ _____ _____    ______ ____
ROOT
ATOM      1  C   UNL     1      45.313  80.654  38.887  0.00  0.00    +0.059 A 
ATOM      2  N   UNL     1      45.360  81.770  38.166  0.00  0.00    -0.248 NA
ATOM      3  C   UNL     1      46.194  82.796  38.461  0.00  0.00    +0.099 A 
ATOM      4  C   UNL     1      47.026  82.683  39.549  0.00  0.00    +0.023 A 
ATOM      5  C   UNL     1      47.012  81.543  40.326  0.00  0.00    +0.026 A 
ATOM      6  C   UNL     1      46.147  80.537  39.979  0.00  0.00    +0.017 A 
ENDROOT
BRANCH   5   7
ATOM      7  C   UNL     1      47.890  81.412  41.482  0.00  0.00    +0.125 C 
ATOM      8  S   UNL     1      48.860  82.649  41.873  0.00  0.00    -0.031 S 
ATOM      9  N   UNL     1      47.872  80.212  42.228  0.00  0.00    -0.120 NA
ENDBRANCH   5   7
BRANCH   1  11
ATOM     10  C   UNL     1      43.427  79.266  39.701  0.00  0.00    +0.007 C 
ATOM     11  C   UNL     1      44.415  79.510  38.596  0.00  0.00    +0.046 C 
ENDBRANCH   1  11
TORSDOF 2
