REMARK  Name = Ethinyl_Estradiol
REMARK  1 active torsions:
REMARK  status: ('A' for Active; 'I' for Inactive)
REMARK    1  A    between atoms: C_10  and  C_11
REMARK                            x       y       z     vdW  Elec       q    Type
REMARK                         _______ _______ _______ _____ _____    ______ ____
ROOT
ATOM      1  C   UNL     1      50.694  82.060  40.898  0.00  0.00    +0.003 C 
ATOM      2  C   UNL     1      49.591  82.534  41.787  0.00  0.00    +0.037 C 
ATOM      3  C   UNL     1      48.517  83.277  41.087  0.00  0.00    +0.004 C 
ATOM      4  C   UNL     1      47.131  82.831  41.110  0.00  0.00    +0.004 C 
ATOM      5  C   UNL     1      46.844  81.427  41.510  0.00  0.00    +0.022 C 
ATOM      6  C   UNL     1      48.110  80.662  41.697  0.00  0.00    +0.004 C 
ATOM      7  C   UNL     1      49.102  81.329  42.575  0.00  0.00    +0.004 C 
ATOM      8  C   UNL     1      48.501  81.951  43.798  0.00  0.00    +0.004 C 
ATOM      9  C   UNL     1      49.493  83.006  44.186  0.00  0.00    +0.043 C 
ATOM     10  C   UNL     1      50.203  83.376  42.891  0.00  0.00    +0.180 C 
ATOM     11  O   UNL     1      51.542  82.967  43.069  0.00  0.00    -0.212 OA
ATOM     12  C   UNL     1      47.822  79.221  42.055  0.00  0.00    +0.005 C 
ATOM     13  C   UNL     1      47.396  78.590  40.704  0.00  0.00    +0.026 C 
ATOM     14  C   UNL     1      46.273  79.396  40.135  0.00  0.00    -0.023 A 
ATOM     15  C   UNL     1      45.981  80.675  40.522  0.00  0.00    -0.026 A 
ATOM     16  C   UNL     1      44.901  81.342  40.021  0.00  0.00    -0.001 A 
ATOM     17  C   UNL     1      44.017  80.769  39.077  0.00  0.00    +0.042 A 
ATOM     18  C   UNL     1      44.325  79.483  38.692  0.00  0.00    +0.195 A 
ATOM     19  C   UNL     1      45.438  78.821  39.221  0.00  0.00    +0.037 A 
ATOM     20  O   UNL     1      43.500  78.842  37.752  0.00  0.00    -0.287 OA
ENDROOT
BRANCH  10  21
ATOM     21  C   UNL     1      50.133  84.744  42.663  0.00  0.00    -0.049 C 
ATOM     22  C   UNL     1      50.080  86.019  42.469  0.00  0.00    -0.012 C 
ENDBRANCH  10  21
TORSDOF 1
