REMARK  Name = Ethoxzolamide
REMARK  3 active torsions:
REMARK  status: ('A' for Active; 'I' for Inactive)
REMARK    1  A    between atoms: C_2  and  O_3
REMARK    2  A    between atoms: O_3  and  C_4
REMARK    3  A    between atoms: C_11  and  S_13
REMARK                            x       y       z     vdW  Elec       q    Type
REMARK                         _______ _______ _______ _____ _____    ______ ____
ROOT
ATOM      1  C   UNL     1      47.996  82.692  40.923  0.00  0.00    +0.139 A 
ATOM      2  C   UNL     1      47.393  81.544  41.391  0.00  0.00    +0.045 A 
ATOM      3  C   UNL     1      46.370  80.899  40.714  0.00  0.00    +0.053 A 
ATOM      4  C   UNL     1      45.879  81.359  39.520  0.00  0.00    +0.090 A 
ATOM      5  C   UNL     1      46.476  82.528  39.021  0.00  0.00    +0.023 A 
ATOM      6  C   UNL     1      47.470  83.138  39.698  0.00  0.00    +0.038 A 
ATOM      7  N   UNL     1      44.918  80.682  38.965  0.00  0.00    -0.220 NA
ATOM      8  C   UNL     1      44.439  79.606  39.522  0.00  0.00    +0.237 A 
ATOM      9  S   UNL     1      45.402  79.507  40.955  0.00  0.00    -0.046 S 
ENDROOT
BRANCH   8  10
ATOM     10  S   UNL     1      43.156  78.505  39.001  0.00  0.00    +0.116 S 
ATOM     11  O   UNL     1      42.138  78.378  40.069  0.00  0.00    -0.148 OA
ATOM     12  O   UNL     1      43.780  77.153  38.705  0.00  0.00    -0.148 OA
ATOM     13  N   UNL     1      42.428  79.054  37.552  0.00  0.00    +0.041 NA
ENDBRANCH   8  10
BRANCH   1  14
ATOM     14  O   UNL     1      49.004  83.375  41.533  0.00  0.00    -0.475 OA
BRANCH  14  16
ATOM     15  C   UNL     1      50.492  84.008  43.271  0.00  0.00    +0.051 C 
ATOM     16  C   UNL     1      49.329  83.159  42.874  0.00  0.00    +0.206 C 
ENDBRANCH  14  16
ENDBRANCH   1  14
TORSDOF 3
