REMARK  Name = Ethynodiol_Diacetate
REMARK  5 active torsions:
REMARK  status: ('A' for Active; 'I' for Inactive)
REMARK    1  A    between atoms: C_2  and  O_4
REMARK    2  A    between atoms: O_4  and  C_5
REMARK    3  A    between atoms: C_21  and  C_22
REMARK    4  A    between atoms: C_21  and  O_24
REMARK    5  A    between atoms: O_24  and  C_25
REMARK                            x       y       z     vdW  Elec       q    Type
REMARK                         _______ _______ _______ _____ _____    ______ ____
ROOT
ATOM      1  C   UNL     1      44.522  78.578  39.349  0.00  0.00    +0.190 C 
ATOM      2  C   UNL     1      45.899  78.203  39.825  0.00  0.00    +0.049 C 
ATOM      3  C   UNL     1      46.496  79.221  40.754  0.00  0.00    +0.008 C 
ATOM      4  C   UNL     1      46.428  80.617  40.317  0.00  0.00    +0.018 C 
ATOM      5  C   UNL     1      47.611  81.166  39.558  0.00  0.00    +0.004 C 
ATOM      6  C   UNL     1      48.923  80.556  39.895  0.00  0.00    +0.000 C 
ATOM      7  C   UNL     1      49.402  80.985  41.246  0.00  0.00    +0.004 C 
ATOM      8  C   UNL     1      49.549  82.468  41.289  0.00  0.00    +0.045 C 
ATOM      9  C   UNL     1      48.506  83.272  40.642  0.00  0.00    +0.004 C 
ATOM     10  C   UNL     1      47.569  82.665  39.683  0.00  0.00    +0.001 C 
ATOM     11  C   UNL     1      46.154  83.172  39.904  0.00  0.00    +0.004 C 
ATOM     12  C   UNL     1      45.104  82.417  39.166  0.00  0.00    +0.022 C 
ATOM     13  C   UNL     1      45.248  80.960  39.479  0.00  0.00    -0.045 C 
ATOM     14  C   UNL     1      44.415  80.032  39.061  0.00  0.00    +0.008 C 
ATOM     15  C   UNL     1      47.798  83.970  41.822  0.00  0.00    +0.005 C 
ATOM     16  C   UNL     1      49.056  84.293  42.655  0.00  0.00    +0.053 C 
ATOM     17  C   UNL     1      49.538  82.845  42.765  0.00  0.00    +0.189 C 
ATOM     18  C   UNL     1      50.953  82.834  40.793  0.00  0.00    +0.004 C 
ENDROOT
BRANCH  17  19
ATOM     19  C   UNL     1      50.810  82.709  43.400  0.00  0.00    -0.040 C 
ATOM     20  C   UNL     1      51.883  82.615  43.927  0.00  0.00    -0.011 C 
ENDBRANCH  17  19
BRANCH   1  21
ATOM     21  O   UNL     1      43.541  78.172  40.260  0.00  0.00    -0.448 OA
BRANCH  21  23
ATOM     22  C   UNL     1      41.822  77.873  38.440  0.00  0.00    +0.121 C 
ATOM     23  C   UNL     1      42.371  77.600  39.802  0.00  0.00    +0.318 C 
ATOM     24  O   UNL     1      41.757  76.818  40.581  0.00  0.00    -0.250 OA
ENDBRANCH  21  23
ENDBRANCH   1  21
BRANCH  17  25
ATOM     25  O   UNL     1      48.518  82.032  43.330  0.00  0.00    -0.443 OA
BRANCH  25  26
ATOM     26  C   UNL     1      48.641  81.389  44.535  0.00  0.00    +0.318 C 
ATOM     27  O   UNL     1      49.818  81.203  44.949  0.00  0.00    -0.250 OA
ATOM     28  C   UNL     1      47.450  80.936  45.312  0.00  0.00    +0.121 C 
ENDBRANCH  25  26
ENDBRANCH  17  25
TORSDOF 5
