REMARK  Name = Ethylestrenol
REMARK  1 active torsions:
REMARK  status: ('A' for Active; 'I' for Inactive)
REMARK    1  A    between atoms: C_2  and  C_3
REMARK                            x       y       z     vdW  Elec       q    Type
REMARK                         _______ _______ _______ _____ _____    ______ ____
ROOT
ATOM      1  C   UNL     1      49.348  83.202  43.382  0.00  0.00    +0.126 C 
ATOM      2  C   UNL     1      47.911  83.544  43.592  0.00  0.00    +0.030 C 
ATOM      3  C   UNL     1      47.189  83.424  42.278  0.00  0.00    +0.003 C 
ATOM      4  C   UNL     1      48.232  82.893  41.346  0.00  0.00    +0.002 C 
ATOM      5  C   UNL     1      49.337  82.319  42.160  0.00  0.00    +0.026 C 
ATOM      6  C   UNL     1      49.195  80.872  42.481  0.00  0.00    +0.002 C 
ATOM      7  C   UNL     1      47.853  80.306  42.135  0.00  0.00    +0.000 C 
ATOM      8  C   UNL     1      47.512  80.573  40.660  0.00  0.00    +0.004 C 
ATOM      9  C   UNL     1      47.704  81.987  40.262  0.00  0.00    +0.001 C 
ATOM     10  C   UNL     1      46.487  82.682  39.687  0.00  0.00    +0.004 C 
ATOM     11  C   UNL     1      45.998  81.733  38.580  0.00  0.00    +0.022 C 
ATOM     12  C   UNL     1      45.391  80.628  39.359  0.00  0.00    -0.049 C 
ATOM     13  C   UNL     1      44.112  80.352  39.173  0.00  0.00    -0.035 C 
ATOM     14  C   UNL     1      43.428  79.246  39.928  0.00  0.00    +0.025 C 
ATOM     15  C   UNL     1      44.291  78.586  40.938  0.00  0.00    +0.005 C 
ATOM     16  C   UNL     1      45.380  79.502  41.516  0.00  0.00    +0.004 C 
ATOM     17  C   UNL     1      46.247  79.898  40.311  0.00  0.00    +0.018 C 
ATOM     18  C   UNL     1      50.632  82.484  41.355  0.00  0.00    +0.002 C 
ATOM     19  O   UNL     1      49.910  82.539  44.465  0.00  0.00    -0.226 OA
ENDROOT
BRANCH   1  21
ATOM     20  C   UNL     1      50.974  84.321  41.843  0.00  0.00    +0.003 C 
ATOM     21  C   UNL     1      50.177  84.437  43.100  0.00  0.00    +0.030 C 
ENDBRANCH   1  21
TORSDOF 1
