REMARK  Name = Etidronic_acid
REMARK  2 active torsions:
REMARK  status: ('A' for Active; 'I' for Inactive)
REMARK    1  A    between atoms: C_2  and  P_4
REMARK    2  A    between atoms: C_2  and  P_8
REMARK                            x       y       z     vdW  Elec       q    Type
REMARK                         _______ _______ _______ _____ _____    ______ ____
ROOT
ATOM      1  C   UNL     1      46.302  80.105  41.462  0.00  0.00    +0.059 C 
ATOM      2  C   UNL     1      45.532  80.593  40.243  0.00  0.00    +0.318 C 
ATOM      3  O   UNL     1      44.378  81.227  40.760  0.00  0.00    -0.200 OA
ENDROOT
BRANCH   2   4
ATOM      4  P   UNL     1      44.954  79.194  39.277  0.00  0.00    +0.433 P 
ATOM      5  O   UNL     1      44.465  79.546  37.922  0.00  0.00    -0.250 OA
ATOM      6  O   UNL     1      43.770  78.389  40.207  0.00  0.00    -0.136 OA
ATOM      7  O   UNL     1      46.289  78.132  39.116  0.00  0.00    -0.136 OA
ENDBRANCH   2   4
BRANCH   2   8
ATOM      8  P   UNL     1      46.456  81.799  39.320  0.00  0.00    +0.433 P 
ATOM      9  O   UNL     1      47.498  81.138  38.411  0.00  0.00    -0.250 OA
ATOM     10  O   UNL     1      47.253  82.929  40.248  0.00  0.00    -0.136 OA
ATOM     11  O   UNL     1      45.381  82.601  38.258  0.00  0.00    -0.136 OA
ENDBRANCH   2   8
TORSDOF 2
