REMARK  Name = Etofenamate
REMARK  10 active torsions:
REMARK  status: ('A' for Active; 'I' for Inactive)
REMARK    1  A    between atoms: C_4  and  N_16
REMARK    2  A    between atoms: C_5  and  C_7
REMARK    3  A    between atoms: C_7  and  O_9
REMARK    4  A    between atoms: O_9  and  C_10
REMARK    5  A    between atoms: C_10  and  C_11
REMARK    6  A    between atoms: C_11  and  O_12
REMARK    7  A    between atoms: O_12  and  C_13
REMARK    8  A    between atoms: C_13  and  C_14
REMARK    9  A    between atoms: N_16  and  C_17
REMARK   10  A    between atoms: C_21  and  C_23
REMARK                            x       y       z     vdW  Elec       q    Type
REMARK                         _______ _______ _______ _____ _____    ______ ____
ROOT
ATOM      1  C   UNL     1      45.877  82.613  38.166  0.00  0.00    +0.000 A 
ATOM      2  C   UNL     1      47.000  83.103  38.779  0.00  0.00    +0.001 A 
ATOM      3  C   UNL     1      47.518  82.478  39.889  0.00  0.00    +0.017 A 
ATOM      4  C   UNL     1      46.885  81.329  40.392  0.00  0.00    +0.077 A 
ATOM      5  C   UNL     1      45.767  80.824  39.797  0.00  0.00    +0.091 A 
ATOM      6  C   UNL     1      45.276  81.491  38.673  0.00  0.00    +0.008 A 
ENDROOT
BRANCH   5   7
ATOM      7  C   UNL     1      45.069  79.607  40.206  0.00  0.00    +0.343 C 
ATOM      8  O   UNL     1      45.417  78.880  41.161  0.00  0.00    -0.245 OA
BRANCH   7   9
ATOM      9  O   UNL     1      43.927  79.166  39.531  0.00  0.00    -0.443 OA
BRANCH   9  10
ATOM     10  C   UNL     1      43.366  77.894  39.751  0.00  0.00    +0.241 C 
BRANCH  10  11
ATOM     11  C   UNL     1      42.249  77.541  38.812  0.00  0.00    +0.190 C 
BRANCH  11  12
ATOM     12  O   UNL     1      41.655  76.377  39.278  0.00  0.00    -0.347 OA
BRANCH  12  13
ATOM     13  C   UNL     1      40.507  76.034  38.594  0.00  0.00    +0.178 C 
BRANCH  13  14
ATOM     14  C   UNL     1      40.401  74.559  38.306  0.00  0.00    +0.214 C 
ATOM     15  O   UNL     1      40.840  74.257  37.026  0.00  0.00    -0.218 OA
ENDBRANCH  13  14
ENDBRANCH  12  13
ENDBRANCH  11  12
ENDBRANCH  10  11
ENDBRANCH   9  10
ENDBRANCH   7   9
ENDBRANCH   5   7
BRANCH   4  16
ATOM     16  N   UNL     1      47.417  80.685  41.532  0.00  0.00    -0.212 NA
BRANCH  16  17
ATOM     17  C   UNL     1      48.563  81.144  42.253  0.00  0.00    +0.070 A 
ATOM     18  C   UNL     1      49.566  80.273  42.615  0.00  0.00    +0.016 A 
ATOM     19  C   UNL     1      50.702  80.713  43.302  0.00  0.00    +0.001 A 
ATOM     20  C   UNL     1      50.849  82.040  43.637  0.00  0.00    +0.004 A 
ATOM     21  C   UNL     1      49.861  82.918  43.284  0.00  0.00    +0.073 A 
ATOM     22  C   UNL     1      48.750  82.468  42.608  0.00  0.00    +0.020 A 
BRANCH  21  23
ATOM     23  C   UNL     1      50.030  84.356  43.653  0.00  0.00    +0.419 C 
ATOM     24  F   UNL     1      48.841  85.014  43.534  0.00  0.00    -0.166 F 
ATOM     25  F   UNL     1      50.973  84.940  42.815  0.00  0.00    -0.166 F 
ATOM     26  F   UNL     1      50.527  84.378  44.954  0.00  0.00    -0.166 F 
ENDBRANCH  21  23
ENDBRANCH  16  17
ENDBRANCH   4  16
TORSDOF 10
