REMARK  Name = Etonogestrel
REMARK  2 active torsions:
REMARK  status: ('A' for Active; 'I' for Inactive)
REMARK    1  A    between atoms: C_2  and  C_3
REMARK    2  A    between atoms: C_12  and  C_13
REMARK                            x       y       z     vdW  Elec       q    Type
REMARK                         _______ _______ _______ _____ _____    ______ ____
ROOT
ATOM      1  C   UNL     1      49.762  82.316  43.031  0.00  0.00    +0.040 C 
ATOM      2  C   UNL     1      49.023  81.061  43.401  0.00  0.00    +0.025 C 
ATOM      3  C   UNL     1      48.349  80.475  42.209  0.00  0.00    -0.044 C 
ATOM      4  C   UNL     1      48.687  79.232  41.859  0.00  0.00    -0.009 C 
ATOM      5  C   UNL     1      47.391  81.377  41.562  0.00  0.00    +0.022 C 
ATOM      6  C   UNL     1      48.329  82.448  40.969  0.00  0.00    +0.004 C 
ATOM      7  C   UNL     1      48.997  83.188  42.059  0.00  0.00    +0.004 C 
ATOM      8  C   UNL     1      48.136  84.081  42.889  0.00  0.00    +0.004 C 
ATOM      9  C   UNL     1      48.509  83.813  44.329  0.00  0.00    +0.043 C 
ATOM     10  C   UNL     1      49.956  83.273  44.180  0.00  0.00    +0.180 C 
ATOM     11  O   UNL     1      50.369  82.720  45.355  0.00  0.00    -0.212 OA
ATOM     12  C   UNL     1      47.527  83.358  40.102  0.00  0.00    +0.005 C 
ATOM     13  C   UNL     1      47.159  82.501  38.883  0.00  0.00    +0.022 C 
ATOM     14  C   UNL     1      46.205  81.460  39.347  0.00  0.00    -0.041 C 
ATOM     15  C   UNL     1      45.305  81.024  38.521  0.00  0.00    +0.029 C 
ATOM     16  C   UNL     1      44.330  79.994  38.935  0.00  0.00    +0.173 C 
ATOM     17  O   UNL     1      43.426  79.672  38.148  0.00  0.00    -0.291 OA
ATOM     18  C   UNL     1      44.451  79.383  40.243  0.00  0.00    +0.069 C 
ATOM     19  C   UNL     1      45.953  79.470  40.693  0.00  0.00    +0.012 C 
ATOM     20  C   UNL     1      46.278  80.931  40.755  0.00  0.00    +0.023 C 
ENDROOT
BRANCH   1  22
ATOM     21  C   UNL     1      51.426  82.805  41.184  0.00  0.00    +0.000 C 
ATOM     22  C   UNL     1      51.112  82.031  42.414  0.00  0.00    +0.004 C 
ENDBRANCH   1  22
BRANCH  10  23
ATOM     23  C   UNL     1      50.715  84.418  43.749  0.00  0.00    -0.049 C 
ATOM     24  C   UNL     1      51.381  85.417  43.350  0.00  0.00    -0.012 C 
ENDBRANCH  10  23
TORSDOF 2
