REMARK  Name = Etoposide
REMARK  5 active torsions:
REMARK  status: ('A' for Active; 'I' for Inactive)
REMARK    1  A    between atoms: C_10  and  O_12
REMARK    2  A    between atoms: O_12  and  C_13
REMARK    3  A    between atoms: C_20  and  C_30
REMARK    4  A    between atoms: C_32  and  O_39
REMARK    5  A    between atoms: C_34  and  O_36
REMARK                            x       y       z     vdW  Elec       q    Type
REMARK                         _______ _______ _______ _____ _____    ______ ____
ROOT
ATOM      1  C   UNL     1      46.054  80.560  40.816  0.00  0.00    +0.144 C 
ATOM      2  C   UNL     1      46.779  80.597  39.483  0.00  0.00    +0.086 C 
ATOM      3  C   UNL     1      45.908  80.343  38.294  0.00  0.00    +0.212 C 
ATOM      4  O   UNL     1      46.655  81.030  37.270  0.00  0.00    -0.448 OA
ATOM      5  C   UNL     1      47.248  82.178  37.837  0.00  0.00    +0.317 C 
ATOM      6  O   UNL     1      47.776  83.068  37.108  0.00  0.00    -0.250 OA
ATOM      7  C   UNL     1      47.104  82.071  39.250  0.00  0.00    +0.113 C 
ATOM      8  C   UNL     1      48.198  82.494  40.164  0.00  0.00    +0.055 C 
ATOM      9  C   UNL     1      47.512  82.528  41.500  0.00  0.00    -0.016 A 
ATOM     10  C   UNL     1      47.825  83.438  42.476  0.00  0.00    +0.036 A 
ATOM     11  C   UNL     1      47.166  83.464  43.704  0.00  0.00    +0.176 A 
ATOM     12  C   UNL     1      46.174  82.559  43.957  0.00  0.00    +0.176 A 
ATOM     13  C   UNL     1      45.846  81.637  42.990  0.00  0.00    +0.038 A 
ATOM     14  C   UNL     1      46.512  81.614  41.753  0.00  0.00    +0.004 A 
ATOM     15  O   UNL     1      45.689  82.811  45.255  0.00  0.00    -0.435 OA
ATOM     16  C   UNL     1      46.309  83.935  45.802  0.00  0.00    +0.429 C 
ATOM     17  O   UNL     1      47.287  84.260  44.832  0.00  0.00    -0.435 OA
ENDROOT
BRANCH   8  18
ATOM     18  C   UNL     1      49.326  81.592  40.263  0.00  0.00    -0.012 A 
ATOM     19  C   UNL     1      49.147  80.231  40.197  0.00  0.00    +0.036 A 
ATOM     20  C   UNL     1      50.220  79.346  40.295  0.00  0.00    +0.180 A 
ATOM     21  C   UNL     1      51.507  79.827  40.461  0.00  0.00    +0.263 A 
ATOM     22  C   UNL     1      51.695  81.190  40.528  0.00  0.00    +0.180 A 
ATOM     23  C   UNL     1      50.608  82.046  40.428  0.00  0.00    +0.036 A 
ATOM     24  O   UNL     1      52.598  78.943  40.561  0.00  0.00    -0.280 OA
BRANCH  22  25
ATOM     25  O   UNL     1      52.998  81.637  40.695  0.00  0.00    -0.468 OA
ATOM     26  C   UNL     1      53.393  82.975  40.766  0.00  0.00    +0.253 C 
ENDBRANCH  22  25
BRANCH  20  27
ATOM     27  O   UNL     1      50.050  77.975  40.230  0.00  0.00    -0.468 OA
ATOM     28  C   UNL     1      50.279  77.091  41.298  0.00  0.00    +0.253 C 
ENDBRANCH  20  27
ENDBRANCH   8  18
BRANCH   1  29
ATOM     29  O   UNL     1      46.178  79.297  41.403  0.00  0.00    -0.326 OA
BRANCH  29  39
ATOM     30  C   UNL     1      40.765  76.607  38.085  0.00  0.00    +0.067 C 
ATOM     31  C   UNL     1      42.157  76.979  38.556  0.00  0.00    +0.235 C 
ATOM     32  O   UNL     1      42.481  78.297  38.171  0.00  0.00    -0.328 OA
ATOM     33  C   UNL     1      42.645  79.106  39.314  0.00  0.00    +0.177 C 
ATOM     34  C   UNL     1      43.813  78.547  40.096  0.00  0.00    +0.177 C 
ATOM     35  C   UNL     1      43.542  77.075  40.324  0.00  0.00    +0.180 C 
ATOM     36  O   UNL     1      42.205  76.831  39.941  0.00  0.00    -0.328 OA
ATOM     37  C   UNL     1      43.700  76.766  41.775  0.00  0.00    +0.217 C 
ATOM     38  C   UNL     1      44.989  77.371  42.287  0.00  0.00    +0.240 C 
ATOM     39  C   UNL     1      45.032  78.849  42.027  0.00  0.00    +0.270 C 
ATOM     40  O   UNL     1      43.886  79.246  41.302  0.00  0.00    -0.326 OA
ATOM     41  O   UNL     1      44.985  77.115  43.679  0.00  0.00    -0.215 OA
ATOM     42  O   UNL     1      43.742  75.382  41.999  0.00  0.00    -0.218 OA
ENDBRANCH  29  39
ENDBRANCH   1  29
TORSDOF 5
