REMARK  Name = Etozolin
REMARK  4 active torsions:
REMARK  status: ('A' for Active; 'I' for Inactive)
REMARK    1  A    between atoms: C_2  and  O_3
REMARK    2  A    between atoms: O_3  and  C_4
REMARK    3  A    between atoms: C_4  and  C_6
REMARK    4  A    between atoms: C_11  and  N_13
REMARK                            x       y       z     vdW  Elec       q    Type
REMARK                         _______ _______ _______ _____ _____    ______ ____
ROOT
ATOM      1  C   UNL     1      48.297  81.991  41.489  0.00  0.00    +0.103 C 
ATOM      2  C   UNL     1      47.153  81.711  40.946  0.00  0.00    +0.088 C 
ATOM      3  N   UNL     1      46.551  82.299  39.818  0.00  0.00    -0.250 N 
ATOM      4  C   UNL     1      45.481  81.542  39.282  0.00  0.00    +0.255 C 
ATOM      5  O   UNL     1      45.290  81.451  38.016  0.00  0.00    -0.272 OA
ATOM      6  C   UNL     1      44.653  80.900  40.339  0.00  0.00    +0.189 C 
ATOM      7  S   UNL     1      46.009  80.469  41.511  0.00  0.00    -0.074 S 
ATOM      8  C   UNL     1      46.972  83.585  39.225  0.00  0.00    +0.121 C 
ENDROOT
BRANCH   6   9
ATOM      9  N   UNL     1      43.999  79.719  39.936  0.00  0.00    -0.258 NA
ATOM     10  C   UNL     1      43.927  79.463  38.554  0.00  0.00    +0.073 C 
ATOM     11  C   UNL     1      42.903  78.341  38.333  0.00  0.00    +0.017 C 
ATOM     12  C   UNL     1      43.516  77.085  38.875  0.00  0.00    +0.003 C 
ATOM     13  C   UNL     1      44.445  77.306  40.022  0.00  0.00    +0.017 C 
ATOM     14  C   UNL     1      44.168  78.581  40.782  0.00  0.00    +0.073 C 
ENDBRANCH   6   9
BRANCH   1  15
ATOM     15  C   UNL     1      48.454  83.109  42.431  0.00  0.00    +0.343 C 
ATOM     16  O   UNL     1      47.423  83.676  42.871  0.00  0.00    -0.245 OA
BRANCH  15  17
ATOM     17  O   UNL     1      49.699  83.541  42.834  0.00  0.00    -0.445 OA
BRANCH  17  19
ATOM     18  C   UNL     1      51.362  84.877  43.956  0.00  0.00    +0.051 C 
ATOM     19  C   UNL     1      49.909  84.744  43.565  0.00  0.00    +0.209 C 
ENDBRANCH  17  19
ENDBRANCH  15  17
ENDBRANCH   1  15
TORSDOF 4
