REMARK  Name = Etrasimod
REMARK  7 active torsions:
REMARK  status: ('A' for Active; 'I' for Inactive)
REMARK    1  A    between atoms: C_4  and  C_6
REMARK    2  A    between atoms: C_7  and  C_30
REMARK    3  A    between atoms: C_9  and  C_12
REMARK    4  A    between atoms: C_12  and  O_13
REMARK    5  A    between atoms: O_13  and  C_14
REMARK    6  A    between atoms: C_25  and  C_26
REMARK    7  A    between atoms: C_26  and  C_27
REMARK                            x       y       z     vdW  Elec       q    Type
REMARK                         _______ _______ _______ _____ _____    ______ ____
ROOT
ATOM      1  O   UNL     1      46.231  79.649  41.566  0.00  0.00    -0.471 OA
ENDROOT
BRANCH   1   2
ATOM      2  C   UNL     1      45.259  78.705  41.318  0.00  0.00    +0.139 A 
ATOM      3  C   UNL     1      44.414  78.889  40.219  0.00  0.00    +0.038 A 
ATOM      4  C   UNL     1      43.434  77.950  39.960  0.00  0.00    +0.018 A 
ATOM      5  C   UNL     1      43.310  76.854  40.786  0.00  0.00    +0.081 A 
ATOM      6  C   UNL     1      44.160  76.678  41.883  0.00  0.00    +0.022 A 
ATOM      7  C   UNL     1      45.140  77.612  42.147  0.00  0.00    +0.038 A 
ATOM      8  N   UNL     1      42.295  76.108  40.315  0.00  0.00    -0.250 NA
ATOM      9  C   UNL     1      41.759  76.671  39.223  0.00  0.00    +0.055 A 
ATOM     10  C   UNL     1      42.462  77.828  38.987  0.00  0.00    -0.007 A 
ATOM     11  C   UNL     1      41.893  78.497  37.774  0.00  0.00    +0.028 C 
ATOM     12  C   UNL     1      41.274  77.305  37.040  0.00  0.00    +0.011 C 
ATOM     13  C   UNL     1      40.692  76.523  38.165  0.00  0.00    +0.052 C 
BRANCH  13  14
ATOM     14  C   UNL     1      39.434  77.076  38.758  0.00  0.00    +0.120 C 
BRANCH  14  15
ATOM     15  C   UNL     1      38.613  76.044  39.427  0.00  0.00    +0.365 C 
ATOM     16  O   UNL     1      37.416  75.914  39.116  0.00  0.00    -0.246 OA
ATOM     17  O   UNL     1      39.145  75.200  40.407  0.00  0.00    -0.246 OA
ENDBRANCH  14  15
ENDBRANCH  13  14
ENDBRANCH   1   2
BRANCH   1  18
ATOM     18  C   UNL     1      47.570  79.259  41.810  0.00  0.00    +0.232 C 
BRANCH  18  22
ATOM     19  C   UNL     1      49.922  82.843  42.263  0.00  0.00    -0.019 A 
ATOM     20  C   UNL     1      48.593  82.862  42.583  0.00  0.00    +0.067 A 
ATOM     21  C   UNL     1      47.847  81.681  42.426  0.00  0.00    +0.003 A 
ATOM     22  C   UNL     1      48.383  80.505  41.966  0.00  0.00    +0.021 A 
ATOM     23  C   UNL     1      49.725  80.502  41.647  0.00  0.00    -0.001 A 
ATOM     24  C   UNL     1      50.483  81.651  41.793  0.00  0.00    -0.005 A 
BRANCH  19  28
ATOM     25  C   UNL     1      53.123  83.544  42.608  0.00  0.00    +0.000 C 
ATOM     26  C   UNL     1      52.742  83.489  41.166  0.00  0.00    +0.000 C 
ATOM     27  C   UNL     1      51.505  84.393  41.117  0.00  0.00    +0.004 C 
ATOM     28  C   UNL     1      50.748  84.066  42.394  0.00  0.00    +0.022 C 
ATOM     29  C   UNL     1      51.886  83.855  43.376  0.00  0.00    +0.004 C 
ENDBRANCH  19  28
BRANCH  20  30
ATOM     30  C   UNL     1      47.960  84.086  43.095  0.00  0.00    +0.418 C 
ATOM     31  F   UNL     1      46.575  83.990  43.215  0.00  0.00    -0.166 F 
ATOM     32  F   UNL     1      48.149  85.091  42.132  0.00  0.00    -0.166 F 
ATOM     33  F   UNL     1      48.528  84.589  44.243  0.00  0.00    -0.166 F 
ENDBRANCH  20  30
ENDBRANCH  18  22
ENDBRANCH   1  18
TORSDOF 7
