REMARK  Name = Etravirine
REMARK  5 active torsions:
REMARK  status: ('A' for Active; 'I' for Inactive)
REMARK    1  A    between atoms: C_4  and  C_27
REMARK    2  A    between atoms: C_7  and  O_8
REMARK    3  A    between atoms: O_8  and  C_9
REMARK    4  A    between atoms: N_17  and  C_18
REMARK    5  A    between atoms: C_21  and  C_24
REMARK                            x       y       z     vdW  Elec       q    Type
REMARK                         _______ _______ _______ _____ _____    ______ ____
ROOT
ATOM      1  C   UNL     1      46.703  81.253  40.505  0.00  0.00    +0.241 A 
ATOM      2  N   UNL     1      45.723  80.529  39.936  0.00  0.00    -0.176 NA
ATOM      3  C   UNL     1      45.223  80.758  38.711  0.00  0.00    +0.245 A 
ATOM      4  N   UNL     1      45.776  81.806  38.029  0.00  0.00    -0.193 NA
ATOM      5  C   UNL     1      46.739  82.582  38.485  0.00  0.00    +0.183 A 
ATOM      6  C   UNL     1      47.227  82.316  39.748  0.00  0.00    +0.123 A 
ATOM      7 BR   UNL     1      48.615  83.382  40.495  0.00  0.00    -0.041 Br
ATOM      8  N   UNL     1      47.295  83.667  37.746  0.00  0.00    -0.106 NA
ATOM      9  N   UNL     1      44.184  79.985  38.108  0.00  0.00    -0.178 NA
ENDROOT
BRANCH   9  10
ATOM     10  C   UNL     1      43.562  78.900  38.737  0.00  0.00    +0.074 A 
ATOM     11  C   UNL     1      42.388  78.383  38.230  0.00  0.00    +0.017 A 
ATOM     12  C   UNL     1      41.763  77.300  38.815  0.00  0.00    +0.012 A 
ATOM     13  C   UNL     1      42.306  76.704  39.934  0.00  0.00    +0.069 A 
ATOM     14  C   UNL     1      43.482  77.215  40.451  0.00  0.00    +0.012 A 
ATOM     15  C   UNL     1      44.093  78.295  39.856  0.00  0.00    +0.017 A 
BRANCH  13  16
ATOM     16  C   UNL     1      41.727  75.559  40.595  0.00  0.00    +0.100 C 
ATOM     17  N   UNL     1      41.245  74.651  41.120  0.00  0.00    -0.191 NA
ENDBRANCH  13  16
ENDBRANCH   9  10
BRANCH   1  18
ATOM     18  O   UNL     1      47.248  81.079  41.728  0.00  0.00    -0.436 OA
BRANCH  18  25
ATOM     19  C   UNL     1      46.692  83.470  43.120  0.00  0.00    +0.034 C 
ATOM     20  C   UNL     1      48.062  82.843  43.090  0.00  0.00    +0.013 A 
ATOM     21  C   UNL     1      49.059  83.499  43.793  0.00  0.00    +0.009 A 
ATOM     22  C   UNL     1      50.303  82.919  43.769  0.00  0.00    +0.068 A 
ATOM     23  C   UNL     1      50.548  81.754  43.084  0.00  0.00    +0.009 A 
ATOM     24  C   UNL     1      49.535  81.128  42.396  0.00  0.00    +0.013 A 
ATOM     25  C   UNL     1      48.253  81.678  42.392  0.00  0.00    +0.139 A 
ATOM     26  C   UNL     1      49.823  79.862  41.658  0.00  0.00    +0.034 C 
BRANCH  22  27
ATOM     27  C   UNL     1      51.404  83.510  44.493  0.00  0.00    +0.100 C 
ATOM     28  N   UNL     1      52.256  83.987  45.070  0.00  0.00    -0.191 NA
ENDBRANCH  22  27
ENDBRANCH  18  25
ENDBRANCH   1  18
TORSDOF 5
