REMARK  Name = Etretinate
REMARK  8 active torsions:
REMARK  status: ('A' for Active; 'I' for Inactive)
REMARK    1  A    between atoms: C_2  and  O_3
REMARK    2  A    between atoms: O_3  and  C_4
REMARK    3  A    between atoms: C_4  and  C_6
REMARK    4  A    between atoms: C_7  and  C_9
REMARK    5  A    between atoms: C_10  and  C_11
REMARK    6  A    between atoms: C_12  and  C_14
REMARK    7  A    between atoms: C_15  and  C_16
REMARK    8  A    between atoms: C_19  and  O_23
REMARK                            x       y       z     vdW  Elec       q    Type
REMARK                         _______ _______ _______ _____ _____    ______ ____
ROOT
ATOM      1  C   UNL     1      44.588  79.287  39.825  0.00  0.00    -0.004 C 
ATOM      2  C   UNL     1      45.499  80.044  40.069  0.00  0.00    -0.022 C 
ATOM      3  C   UNL     1      44.993  81.117  38.596  0.00  0.00    +0.031 C 
ENDROOT
BRANCH   1   5
ATOM      4  C   UNL     1      42.797  78.323  38.664  0.00  0.00    -0.004 C 
ATOM      5  C   UNL     1      43.570  78.314  39.715  0.00  0.00    -0.001 C 
BRANCH   4   7
ATOM      6  C   UNL     1      41.008  77.534  37.270  0.00  0.00    +0.078 C 
ATOM      7  C   UNL     1      41.659  77.483  38.439  0.00  0.00    -0.015 C 
ATOM      8  C   UNL     1      41.136  76.581  39.477  0.00  0.00    +0.031 C 
BRANCH   6   9
ATOM      9  C   UNL     1      39.784  76.841  37.000  0.00  0.00    +0.341 C 
ATOM     10  O   UNL     1      38.931  76.617  37.923  0.00  0.00    -0.245 OA
BRANCH   9  11
ATOM     11  O   UNL     1      39.444  76.369  35.748  0.00  0.00    -0.445 OA
BRANCH  11  13
ATOM     12  C   UNL     1      38.793  74.927  34.000  0.00  0.00    +0.051 C 
ATOM     13  C   UNL     1      38.748  75.189  35.508  0.00  0.00    +0.209 C 
ENDBRANCH  11  13
ENDBRANCH   9  11
ENDBRANCH   6   9
ENDBRANCH   4   7
ENDBRANCH   1   5
BRANCH   2  14
ATOM     14  C   UNL     1      46.546  80.923  40.343  0.00  0.00    -0.004 C 
ATOM     15  C   UNL     1      47.191  80.912  41.534  0.00  0.00    -0.001 C 
BRANCH  15  16
ATOM     16  C   UNL     1      48.316  81.690  41.916  0.00  0.00    -0.008 A 
ATOM     17  C   UNL     1      48.069  82.988  42.427  0.00  0.00    -0.023 A 
ATOM     18  C   UNL     1      49.099  83.781  42.860  0.00  0.00    +0.008 A 
ATOM     19  C   UNL     1      50.407  83.365  42.822  0.00  0.00    +0.134 A 
ATOM     20  C   UNL     1      50.657  82.113  42.334  0.00  0.00    +0.032 A 
ATOM     21  C   UNL     1      49.617  81.274  41.883  0.00  0.00    -0.019 A 
ATOM     22  C   UNL     1      50.015  79.912  41.487  0.00  0.00    +0.031 C 
ATOM     23  C   UNL     1      48.823  85.155  43.395  0.00  0.00    +0.034 C 
ATOM     24  C   UNL     1      46.667  83.465  42.478  0.00  0.00    +0.031 C 
BRANCH  19  25
ATOM     25  O   UNL     1      51.384  84.228  43.276  0.00  0.00    -0.472 OA
ATOM     26  C   UNL     1      52.760  83.901  43.290  0.00  0.00    +0.252 C 
ENDBRANCH  19  25
ENDBRANCH  15  16
ENDBRANCH   2  14
TORSDOF 8
