REMARK  Name = Eupatilin
REMARK  4 active torsions:
REMARK  status: ('A' for Active; 'I' for Inactive)
REMARK    1  A    between atoms: O_2  and  C_3
REMARK    2  A    between atoms: C_4  and  O_24
REMARK    3  A    between atoms: C_6  and  C_9
REMARK    4  A    between atoms: C_18  and  O_21
REMARK                            x       y       z     vdW  Elec       q    Type
REMARK                         _______ _______ _______ _____ _____    ______ ____
ROOT
ATOM      1  C   UNL     1      46.967  81.112  40.940  0.00  0.00    +0.149 A 
ATOM      2  C   UNL     1      46.309  81.760  39.944  0.00  0.00    +0.080 A 
ATOM      3  C   UNL     1      45.219  81.196  39.271  0.00  0.00    +0.205 A 
ATOM      4  O   UNL     1      44.612  81.790  38.355  0.00  0.00    -0.286 OA
ATOM      5  C   UNL     1      44.837  79.931  39.673  0.00  0.00    +0.116 A 
ATOM      6  C   UNL     1      45.524  79.310  40.680  0.00  0.00    +0.155 A 
ATOM      7  O   UNL     1      46.535  79.910  41.257  0.00  0.00    -0.453 OA
ATOM      8  C   UNL     1      45.133  78.028  41.083  0.00  0.00    +0.083 A 
ATOM      9  C   UNL     1      44.066  77.407  40.467  0.00  0.00    +0.236 A 
ATOM     10  C   UNL     1      43.358  78.017  39.446  0.00  0.00    +0.216 A 
ATOM     11  C   UNL     1      43.763  79.276  39.069  0.00  0.00    +0.238 A 
ATOM     12  O   UNL     1      43.090  79.915  38.065  0.00  0.00    -0.283 OA
ATOM     13  O   UNL     1      43.714  76.140  40.897  0.00  0.00    -0.283 OA
ENDROOT
BRANCH   1  17
ATOM     14  C   UNL     1      50.319  82.763  42.949  0.00  0.00    +0.172 A 
ATOM     15  C   UNL     1      49.214  83.553  42.749  0.00  0.00    +0.172 A 
ATOM     16  C   UNL     1      48.119  83.001  42.088  0.00  0.00    +0.043 A 
ATOM     17  C   UNL     1      48.106  81.712  41.636  0.00  0.00    +0.038 A 
ATOM     18  C   UNL     1      49.259  80.944  41.865  0.00  0.00    +0.006 A 
ATOM     19  C   UNL     1      50.342  81.461  42.508  0.00  0.00    +0.040 A 
BRANCH  14  21
ATOM     20  C   UNL     1      52.477  83.960  42.989  0.00  0.00    +0.253 C 
ATOM     21  O   UNL     1      51.431  83.265  43.600  0.00  0.00    -0.468 OA
ENDBRANCH  14  21
BRANCH  15  22
ATOM     22  O   UNL     1      49.172  84.886  43.193  0.00  0.00    -0.468 OA
ATOM     23  C   UNL     1      47.928  85.542  43.239  0.00  0.00    +0.253 C 
ENDBRANCH  15  22
ENDBRANCH   1  17
BRANCH  10  24
ATOM     24  O   UNL     1      42.312  77.337  38.884  0.00  0.00    -0.465 OA
ATOM     25  C   UNL     1      41.443  77.821  37.907  0.00  0.00    +0.253 C 
ENDBRANCH  10  24
TORSDOF 4
