REMARK  Name = Everolimus
REMARK  9 active torsions:
REMARK  status: ('A' for Active; 'I' for Inactive)
REMARK    1  A    between atoms: C_7  and  O_67
REMARK    2  A    between atoms: C_19  and  O_62
REMARK    3  A    between atoms: C_27  and  C_44
REMARK    4  A    between atoms: C_44  and  C_46
REMARK    5  A    between atoms: C_46  and  C_47
REMARK    6  A    between atoms: C_50  and  O_55
REMARK    7  A    between atoms: C_51  and  O_53
REMARK    8  A    between atoms: O_55  and  C_56
REMARK    9  A    between atoms: C_56  and  C_57
REMARK                            x       y       z     vdW  Elec       q    Type
REMARK                         _______ _______ _______ _____ _____    ______ ____
ROOT
ATOM      1  C   UNL     1      47.701  84.117  40.128  0.00  0.00    +0.006 C 
ATOM      2  C   UNL     1      47.294  83.335  41.344  0.00  0.00    +0.062 C 
ATOM      3  C   UNL     1      48.335  83.433  42.415  0.00  0.00    +0.008 C 
ATOM      4  C   UNL     1      49.408  82.379  42.286  0.00  0.00    +0.030 C 
ATOM      5  C   UNL     1      48.863  81.055  41.832  0.00  0.00    +0.121 C 
ATOM      6  C   UNL     1      49.352  79.891  42.651  0.00  0.00    +0.063 C 
ATOM      7  C   UNL     1      50.819  79.619  42.506  0.00  0.00    +0.136 C 
ATOM      8  C   UNL     1      51.254  78.869  43.733  0.00  0.00    -0.017 C 
ATOM      9  C   UNL     1      52.103  77.880  43.731  0.00  0.00    -0.006 C 
ATOM     10  C   UNL     1      52.798  77.292  42.603  0.00  0.00    -0.001 C 
ATOM     11  C   UNL     1      52.279  76.592  41.607  0.00  0.00    -0.000 C 
ATOM     12  C   UNL     1      50.879  76.250  41.416  0.00  0.00    -0.005 C 
ATOM     13  C   UNL     1      50.080  75.582  42.215  0.00  0.00    -0.026 C 
ATOM     14  C   UNL     1      50.417  75.001  43.535  0.00  0.00    +0.022 C 
ATOM     15  C   UNL     1      49.479  73.817  43.816  0.00  0.00    +0.012 C 
ATOM     16  C   UNL     1      48.552  74.128  44.974  0.00  0.00    +0.061 C 
ATOM     17  C   UNL     1      47.274  73.394  44.888  0.00  0.00    +0.180 C 
ATOM     18  O   UNL     1      46.228  73.994  45.028  0.00  0.00    -0.293 OA
ATOM     19  C   UNL     1      47.225  71.934  44.636  0.00  0.00    +0.206 C 
ATOM     20  C   UNL     1      46.091  71.577  43.691  0.00  0.00    +0.204 C 
ATOM     21  C   UNL     1      46.487  71.687  42.271  0.00  0.00    -0.015 C 
ATOM     22  C   UNL     1      45.812  72.382  41.374  0.00  0.00    -0.025 C 
ATOM     23  C   UNL     1      44.561  73.132  41.732  0.00  0.00    +0.079 C 
ATOM     24  C   UNL     1      44.231  74.066  40.626  0.00  0.00    +0.158 C 
ATOM     25  O   UNL     1      43.667  73.628  39.643  0.00  0.00    -0.296 OA
ATOM     26  C   UNL     1      44.569  75.485  40.700  0.00  0.00    +0.108 C 
ATOM     27  C   UNL     1      43.505  76.403  40.078  0.00  0.00    +0.176 C 
ATOM     28  O   UNL     1      43.696  77.734  40.331  0.00  0.00    -0.451 OA
ATOM     29  C   UNL     1      44.567  78.715  39.987  0.00  0.00    +0.335 C 
ATOM     30  O   UNL     1      45.439  79.074  40.876  0.00  0.00    -0.248 OA
ATOM     31  C   UNL     1      44.543  79.356  38.680  0.00  0.00    +0.175 C 
ATOM     32  C   UNL     1      43.321  79.038  37.841  0.00  0.00    +0.031 C 
ATOM     33  C   UNL     1      43.586  79.415  36.395  0.00  0.00    +0.004 C 
ATOM     34  C   UNL     1      43.745  80.920  36.375  0.00  0.00    +0.022 C 
ATOM     35  C   UNL     1      44.940  81.248  37.245  0.00  0.00    +0.094 C 
ATOM     36  N   UNL     1      44.728  80.791  38.632  0.00  0.00    -0.265 N 
ATOM     37  C   UNL     1      44.702  81.744  39.652  0.00  0.00    +0.289 C 
ATOM     38  O   UNL     1      43.858  82.740  39.526  0.00  0.00    -0.267 OA
ATOM     39  C   UNL     1      45.477  81.830  40.880  0.00  0.00    +0.279 C 
ATOM     40  O   UNL     1      44.852  81.870  41.992  0.00  0.00    -0.281 OA
ATOM     41  C   UNL     1      46.959  81.879  40.993  0.00  0.00    +0.279 C 
ATOM     42  O   UNL     1      47.462  81.109  42.019  0.00  0.00    -0.329 OA
ATOM     43  O   UNL     1      47.614  81.568  39.829  0.00  0.00    -0.187 OA
ATOM     44  C   UNL     1      43.397  72.212  41.947  0.00  0.00    +0.012 C 
ATOM     45  C   UNL     1      47.714  70.983  41.816  0.00  0.00    +0.029 C 
ATOM     46  O   UNL     1      45.767  70.233  43.964  0.00  0.00    -0.216 OA
ATOM     47  C   UNL     1      49.316  73.776  46.237  0.00  0.00    +0.008 C 
ATOM     48  C   UNL     1      51.801  74.488  43.657  0.00  0.00    +0.005 C 
ATOM     49  C   UNL     1      50.632  79.322  45.037  0.00  0.00    +0.029 C 
ENDROOT
BRANCH  27  50
ATOM     50  C   UNL     1      42.120  76.008  40.627  0.00  0.00    +0.041 C 
ATOM     51  C   UNL     1      42.141  76.130  42.099  0.00  0.00    +0.004 C 
BRANCH  50  52
ATOM     52  C   UNL     1      41.135  76.836  39.895  0.00  0.00    +0.004 C 
BRANCH  52  53
ATOM     53  C   UNL     1      40.300  76.192  38.858  0.00  0.00    +0.003 C 
ATOM     54  C   UNL     1      38.932  76.733  38.656  0.00  0.00    +0.003 C 
ATOM     55  C   UNL     1      38.547  76.842  37.208  0.00  0.00    +0.032 C 
ATOM     56  C   UNL     1      38.870  75.656  36.368  0.00  0.00    +0.142 C 
ATOM     57  C   UNL     1      40.152  74.935  36.794  0.00  0.00    +0.142 C 
ATOM     58  C   UNL     1      40.975  76.014  37.513  0.00  0.00    +0.032 C 
BRANCH  57  59
ATOM     59  O   UNL     1      39.894  73.948  37.739  0.00  0.00    -0.351 OA
ATOM     60  C   UNL     1      40.309  72.690  37.305  0.00  0.00    +0.174 C 
ENDBRANCH  57  59
BRANCH  56  61
ATOM     61  O   UNL     1      39.153  76.123  35.067  0.00  0.00    -0.351 OA
BRANCH  61  62
ATOM     62  C   UNL     1      38.457  75.389  34.112  0.00  0.00    +0.178 C 
BRANCH  62  63
ATOM     63  C   UNL     1      36.958  75.640  34.330  0.00  0.00    +0.214 C 
ATOM     64  O   UNL     1      36.505  76.582  33.418  0.00  0.00    -0.218 OA
ENDBRANCH  62  63
ENDBRANCH  61  62
ENDBRANCH  56  61
ENDBRANCH  52  53
ENDBRANCH  50  52
ENDBRANCH  27  50
BRANCH  19  65
ATOM     65  O   UNL     1      46.911  71.304  45.860  0.00  0.00    -0.343 OA
ATOM     66  C   UNL     1      48.059  70.760  46.437  0.00  0.00    +0.175 C 
ENDBRANCH  19  65
BRANCH   7  67
ATOM     67  O   UNL     1      51.576  80.790  42.458  0.00  0.00    -0.349 OA
ATOM     68  C   UNL     1      51.075  81.756  43.338  0.00  0.00    +0.174 C 
ENDBRANCH   7  67
TORSDOF 9
