REMARK  Name = Exemestane
REMARK  0 active torsions:
REMARK  status: ('A' for Active; 'I' for Inactive)
REMARK                            x       y       z     vdW  Elec       q    Type
REMARK                         _______ _______ _______ _____ _____    ______ ____
ROOT
ATOM      1  C   UNL     1      51.920  81.946  41.752  0.00  0.00    +0.007 C 
ATOM      2  C   UNL     1      50.541  82.499  42.148  0.00  0.00    +0.052 C 
ATOM      3  C   UNL     1      49.984  83.139  40.919  0.00  0.00    +0.007 C 
ATOM      4  C   UNL     1      48.530  83.407  40.895  0.00  0.00    +0.001 C 
ATOM      5  C   UNL     1      47.694  82.393  41.623  0.00  0.00    +0.008 C 
ATOM      6  C   UNL     1      48.436  81.187  42.038  0.00  0.00    +0.005 C 
ATOM      7  C   UNL     1      49.714  81.451  42.778  0.00  0.00    +0.007 C 
ATOM      8  C   UNL     1      49.487  81.830  44.217  0.00  0.00    +0.008 C 
ATOM      9  C   UNL     1      49.800  83.296  44.285  0.00  0.00    +0.064 C 
ATOM     10  C   UNL     1      50.813  83.478  43.236  0.00  0.00    +0.150 C 
ATOM     11  O   UNL     1      51.719  84.315  43.288  0.00  0.00    -0.296 OA
ATOM     12  C   UNL     1      47.516  80.313  42.895  0.00  0.00    +0.026 C 
ATOM     13  C   UNL     1      46.631  79.691  41.863  0.00  0.00    -0.026 C 
ATOM     14  C   UNL     1      46.141  78.498  41.996  0.00  0.00    -0.005 C 
ATOM     15  C   UNL     1      46.380  80.552  40.679  0.00  0.00    -0.020 C 
ATOM     16  C   UNL     1      46.118  79.960  39.528  0.00  0.00    +0.038 C 
ATOM     17  C   UNL     1      45.870  80.762  38.345  0.00  0.00    +0.195 C 
ATOM     18  O   UNL     1      45.614  80.277  37.217  0.00  0.00    -0.287 OA
ATOM     19  C   UNL     1      45.930  82.208  38.522  0.00  0.00    +0.038 C 
ATOM     20  C   UNL     1      46.187  82.790  39.662  0.00  0.00    -0.019 C 
ATOM     21  C   UNL     1      46.437  82.018  40.883  0.00  0.00    +0.037 C 
ATOM     22  C   UNL     1      45.221  82.328  41.797  0.00  0.00    +0.009 C 
ENDROOT
TORSDOF 0
