REMARK  Name = Exjade
REMARK  4 active torsions:
REMARK  status: ('A' for Active; 'I' for Inactive)
REMARK    1  A    between atoms: C_5  and  C_7
REMARK    2  A    between atoms: N_9  and  C_19
REMARK    3  A    between atoms: C_10  and  C_12
REMARK    4  A    between atoms: C_22  and  C_25
REMARK                            x       y       z     vdW  Elec       q    Type
REMARK                         _______ _______ _______ _____ _____    ______ ____
ROOT
ATOM      1  C   UNL     1      43.009  77.906  39.544  0.00  0.00    +0.187 A 
ATOM      2  N   UNL     1      44.046  78.743  39.571  0.00  0.00    -0.144 NA
ATOM      3  N   UNL     1      44.833  78.477  40.644  0.00  0.00    -0.211 N 
ATOM      4  C   UNL     1      44.311  77.474  41.313  0.00  0.00    +0.168 A 
ATOM      5  N   UNL     1      43.167  77.125  40.609  0.00  0.00    -0.206 NA
ENDROOT
BRANCH   1  10
ATOM      6  C   UNL     1      40.820  78.687  36.597  0.00  0.00    +0.000 A 
ATOM      7  C   UNL     1      39.853  77.712  36.711  0.00  0.00    +0.003 A 
ATOM      8  C   UNL     1      39.925  76.798  37.761  0.00  0.00    +0.042 A 
ATOM      9  C   UNL     1      40.952  76.864  38.678  0.00  0.00    +0.199 A 
ATOM     10  C   UNL     1      41.920  77.837  38.568  0.00  0.00    +0.076 A 
ATOM     11  C   UNL     1      41.830  78.730  37.524  0.00  0.00    +0.006 A 
ATOM     12  O   UNL     1      41.027  75.961  39.719  0.00  0.00    -0.286 OA
ENDBRANCH   1  10
BRANCH   4  13
ATOM     13  C   UNL     1      44.681  76.703  42.480  0.00  0.00    +0.075 A 
ATOM     14  C   UNL     1      44.252  75.369  42.576  0.00  0.00    +0.006 A 
ATOM     15  C   UNL     1      44.522  74.580  43.666  0.00  0.00    +0.000 A 
ATOM     16  C   UNL     1      45.233  75.071  44.722  0.00  0.00    +0.003 A 
ATOM     17  C   UNL     1      45.664  76.367  44.661  0.00  0.00    +0.042 A 
ATOM     18  C   UNL     1      45.382  77.176  43.535  0.00  0.00    +0.199 A 
ATOM     19  O   UNL     1      45.853  78.463  43.577  0.00  0.00    -0.286 OA
ENDBRANCH   4  13
BRANCH   3  20
ATOM     20  C   UNL     1      46.041  79.174  40.904  0.00  0.00    +0.085 A 
ATOM     21  C   UNL     1      46.014  80.557  40.984  0.00  0.00    +0.019 A 
ATOM     22  C   UNL     1      47.135  81.295  41.274  0.00  0.00    +0.008 A 
ATOM     23  C   UNL     1      48.317  80.626  41.490  0.00  0.00    +0.080 A 
ATOM     24  C   UNL     1      48.342  79.268  41.411  0.00  0.00    +0.008 A 
ATOM     25  C   UNL     1      47.228  78.508  41.121  0.00  0.00    +0.019 A 
BRANCH  23  26
ATOM     26  C   UNL     1      49.528  81.414  41.802  0.00  0.00    +0.388 C 
ATOM     27  O   UNL     1      49.368  82.516  42.385  0.00  0.00    -0.241 OA
ATOM     28  O   UNL     1      50.782  80.934  41.455  0.00  0.00    -0.241 OA
ENDBRANCH  23  26
ENDBRANCH   3  20
TORSDOF 4
