REMARK  Name = Ezetimibe
REMARK  6 active torsions:
REMARK  status: ('A' for Active; 'I' for Inactive)
REMARK    1  A    between atoms: C_6  and  C_7
REMARK    2  A    between atoms: C_8  and  C_19
REMARK    3  A    between atoms: N_11  and  C_12
REMARK    4  A    between atoms: C_19  and  C_20
REMARK    5  A    between atoms: C_20  and  C_21
REMARK    6  A    between atoms: C_21  and  C_22
REMARK                            x       y       z     vdW  Elec       q    Type
REMARK                         _______ _______ _______ _____ _____    ______ ____
ROOT
ATOM      1  C   UNL     1      48.027  80.380  41.374  0.00  0.00    +0.111 C 
ATOM      2  C   UNL     1      47.434  79.394  42.331  0.00  0.00    +0.100 C 
ATOM      3  C   UNL     1      47.367  80.503  43.283  0.00  0.00    +0.231 C 
ATOM      4  O   UNL     1      46.660  80.747  44.295  0.00  0.00    -0.274 OA
ATOM      5  N   UNL     1      48.422  81.127  42.552  0.00  0.00    -0.256 N 
ENDROOT
BRANCH   1  11
ATOM      6  C   UNL     1      45.768  81.102  40.638  0.00  0.00    +0.001 A 
ATOM      7  C   UNL     1      44.963  81.790  39.741  0.00  0.00    +0.042 A 
ATOM      8  C   UNL     1      45.508  82.467  38.669  0.00  0.00    +0.196 A 
ATOM      9  C   UNL     1      46.870  82.460  38.485  0.00  0.00    +0.042 A 
ATOM     10  C   UNL     1      47.648  81.772  39.385  0.00  0.00    +0.001 A 
ATOM     11  C   UNL     1      47.135  81.087  40.465  0.00  0.00    -0.003 A 
ATOM     12  O   UNL     1      44.702  83.166  37.756  0.00  0.00    -0.287 OA
ENDBRANCH   1  11
BRANCH   5  13
ATOM     13  C   UNL     1      49.424  82.080  42.878  0.00  0.00    +0.054 A 
ATOM     14  C   UNL     1      49.171  83.017  43.874  0.00  0.00    +0.017 A 
ATOM     15  C   UNL     1      50.136  83.962  44.212  0.00  0.00    +0.031 A 
ATOM     16  C   UNL     1      51.344  83.987  43.575  0.00  0.00    +0.140 A 
ATOM     17  C   UNL     1      51.608  83.069  42.590  0.00  0.00    +0.031 A 
ATOM     18  C   UNL     1      50.645  82.126  42.253  0.00  0.00    +0.017 A 
ATOM     19  F   UNL     1      52.275  84.896  43.899  0.00  0.00    -0.204 F 
ENDBRANCH   5  13
BRANCH   2  20
ATOM     20  C   UNL     1      46.127  78.775  41.935  0.00  0.00    +0.014 C 
BRANCH  20  21
ATOM     21  C   UNL     1      46.356  77.720  40.890  0.00  0.00    +0.038 C 
BRANCH  21  22
ATOM     22  C   UNL     1      45.332  76.645  40.806  0.00  0.00    +0.174 C 
ATOM     23  O   UNL     1      44.918  76.285  42.090  0.00  0.00    -0.218 OA
BRANCH  22  24
ATOM     24  C   UNL     1      44.147  76.930  39.997  0.00  0.00    +0.008 A 
ATOM     25  C   UNL     1      44.036  78.018  39.163  0.00  0.00    +0.000 A 
ATOM     26  C   UNL     1      42.883  78.196  38.416  0.00  0.00    +0.029 A 
ATOM     27  C   UNL     1      41.850  77.276  38.515  0.00  0.00    +0.140 A 
ATOM     28  C   UNL     1      41.958  76.182  39.352  0.00  0.00    +0.029 A 
ATOM     29  C   UNL     1      43.103  76.011  40.090  0.00  0.00    +0.000 A 
ATOM     30  F   UNL     1      40.711  77.440  37.785  0.00  0.00    -0.204 F 
ENDBRANCH  22  24
ENDBRANCH  21  22
ENDBRANCH  20  21
ENDBRANCH   2  20
TORSDOF 6
