REMARK  Name = Falecalcitrol
REMARK  8 active torsions:
REMARK  status: ('A' for Active; 'I' for Inactive)
REMARK    1  A    between atoms: C_2  and  C_3
REMARK    2  A    between atoms: C_2  and  C_16
REMARK    3  A    between atoms: C_3  and  C_4
REMARK    4  A    between atoms: C_4  and  C_5
REMARK    5  A    between atoms: C_5  and  C_6
REMARK    6  A    between atoms: C_6  and  C_7
REMARK    7  A    between atoms: C_6  and  C_11
REMARK    8  A    between atoms: C_25  and  C_26
REMARK                            x       y       z     vdW  Elec       q    Type
REMARK                         _______ _______ _______ _____ _____    ______ ____
ROOT
ATOM      1  C   UNL     1      47.550  81.442  41.553  0.00  0.00    +0.000 C 
ATOM      2  C   UNL     1      46.431  81.914  42.502  0.00  0.00    +0.000 C 
ATOM      3  C   UNL     1      45.168  81.195  42.084  0.00  0.00    +0.004 C 
ATOM      4  C   UNL     1      45.609  80.278  41.003  0.00  0.00    +0.018 C 
ATOM      5  C   UNL     1      46.828  80.962  40.392  0.00  0.00    +0.003 C 
ATOM      6  C   UNL     1      46.452  82.149  39.525  0.00  0.00    +0.001 C 
ATOM      7  C   UNL     1      45.040  82.243  39.124  0.00  0.00    +0.004 C 
ATOM      8  C   UNL     1      44.325  80.957  38.934  0.00  0.00    +0.022 C 
ATOM      9  C   UNL     1      44.639  79.958  39.964  0.00  0.00    -0.045 C 
ATOM     10  C   UNL     1      44.016  78.778  39.909  0.00  0.00    -0.009 C 
ATOM     11  C   UNL     1      47.425  79.958  39.475  0.00  0.00    +0.000 C 
ENDROOT
BRANCH  10  12
ATOM     12  C   UNL     1      42.993  78.554  38.910  0.00  0.00    -0.005 C 
ATOM     13  C   UNL     1      42.200  77.510  39.002  0.00  0.00    -0.021 C 
ATOM     14  C   UNL     1      42.416  76.555  40.121  0.00  0.00    +0.059 C 
ATOM     15  C   UNL     1      41.330  75.538  40.263  0.00  0.00    +0.159 C 
ATOM     16  C   UNL     1      40.650  75.161  38.977  0.00  0.00    +0.071 C 
ATOM     17  C   UNL     1      40.011  76.435  38.417  0.00  0.00    +0.176 C 
ATOM     18  C   UNL     1      41.141  77.310  38.017  0.00  0.00    +0.004 C 
ATOM     19  C   UNL     1      41.166  77.864  36.830  0.00  0.00    -0.002 C 
ATOM     20  O   UNL     1      39.227  76.071  37.339  0.00  0.00    -0.218 OA
ATOM     21  O   UNL     1      41.891  74.383  40.855  0.00  0.00    -0.223 OA
ENDBRANCH  10  12
BRANCH   1  23
ATOM     22  C   UNL     1      49.918  80.574  41.967  0.00  0.00    +0.000 C 
ATOM     23  C   UNL     1      48.487  80.666  42.337  0.00  0.00    +0.000 C 
BRANCH  23  24
ATOM     24  C   UNL     1      48.532  81.319  43.736  0.00  0.00    +0.000 C 
BRANCH  24  25
ATOM     25  C   UNL     1      49.393  82.565  43.712  0.00  0.00    +0.003 C 
BRANCH  25  26
ATOM     26  C   UNL     1      50.667  82.200  42.992  0.00  0.00    +0.048 C 
BRANCH  26  27
ATOM     27  C   UNL     1      51.772  83.198  43.104  0.00  0.00    +0.298 C 
ATOM     28  O   UNL     1      52.850  82.652  43.814  0.00  0.00    -0.208 OA
BRANCH  27  29
ATOM     29  C   UNL     1      51.368  84.513  43.708  0.00  0.00    +0.431 C 
ATOM     30  F   UNL     1      50.584  85.240  42.790  0.00  0.00    -0.167 F 
ATOM     31  F   UNL     1      50.676  84.319  44.883  0.00  0.00    -0.167 F 
ATOM     32  F   UNL     1      52.490  85.325  43.912  0.00  0.00    -0.167 F 
ENDBRANCH  27  29
BRANCH  27  33
ATOM     33  C   UNL     1      52.302  83.405  41.678  0.00  0.00    +0.431 C 
ATOM     34  F   UNL     1      52.839  82.258  41.173  0.00  0.00    -0.167 F 
ATOM     35  F   UNL     1      53.244  84.421  41.687  0.00  0.00    -0.167 F 
ATOM     36  F   UNL     1      51.249  83.788  40.891  0.00  0.00    -0.167 F 
ENDBRANCH  27  33
ENDBRANCH  26  27
ENDBRANCH  25  26
ENDBRANCH  24  25
ENDBRANCH  23  24
ENDBRANCH   1  23
TORSDOF 8
