REMARK  Name = Famciclovir
REMARK  9 active torsions:
REMARK  status: ('A' for Active; 'I' for Inactive)
REMARK    1  A    between atoms: C_2  and  O_4
REMARK    2  A    between atoms: O_4  and  C_5
REMARK    3  A    between atoms: C_5  and  C_6
REMARK    4  A    between atoms: C_6  and  C_7
REMARK    5  A    between atoms: C_6  and  C_19
REMARK    6  A    between atoms: C_7  and  C_8
REMARK    7  A    between atoms: C_8  and  N_9
REMARK    8  A    between atoms: C_19  and  O_20
REMARK    9  A    between atoms: O_20  and  C_21
REMARK                            x       y       z     vdW  Elec       q    Type
REMARK                         _______ _______ _______ _____ _____    ______ ____
ROOT
ATOM      1  C   UNL     1      47.888  81.424  41.987  0.00  0.00    +0.032 C 
ENDROOT
BRANCH   1   2
ATOM      2  C   UNL     1      49.038  81.399  42.952  0.00  0.00    +0.090 C 
BRANCH   2   3
ATOM      3  C   UNL     1      49.075  82.674  43.719  0.00  0.00    +0.212 C 
BRANCH   3   4
ATOM      4  O   UNL     1      47.977  83.528  43.515  0.00  0.00    -0.448 OA
BRANCH   4   6
ATOM      5  C   UNL     1      46.626  85.618  43.889  0.00  0.00    +0.121 C 
ATOM      6  C   UNL     1      47.869  84.788  44.067  0.00  0.00    +0.318 C 
ATOM      7  O   UNL     1      48.843  85.230  44.727  0.00  0.00    -0.250 OA
ENDBRANCH   4   6
ENDBRANCH   3   4
ENDBRANCH   2   3
BRANCH   2   8
ATOM      8  C   UNL     1      50.321  81.291  42.149  0.00  0.00    +0.212 C 
BRANCH   8   9
ATOM      9  O   UNL     1      50.892  82.578  41.951  0.00  0.00    -0.448 OA
BRANCH   9  10
ATOM     10  C   UNL     1      52.111  82.702  41.318  0.00  0.00    +0.318 C 
ATOM     11  O   UNL     1      52.775  81.702  40.952  0.00  0.00    -0.250 OA
ATOM     12  C   UNL     1      52.717  84.047  41.027  0.00  0.00    +0.121 C 
ENDBRANCH   9  10
ENDBRANCH   8   9
ENDBRANCH   2   8
ENDBRANCH   1   2
BRANCH   1  13
ATOM     13  C   UNL     1      48.181  80.836  40.634  0.00  0.00    +0.109 C 
BRANCH  13  14
ATOM     14  N   UNL     1      47.099  80.990  39.684  0.00  0.00    -0.294 N 
ATOM     15  C   UNL     1      47.007  81.796  38.614  0.00  0.00    +0.180 A 
ATOM     16  N   UNL     1      45.828  81.621  37.980  0.00  0.00    -0.221 NA
ATOM     17  C   UNL     1      45.143  80.697  38.635  0.00  0.00    +0.136 A 
ATOM     18  C   UNL     1      43.892  80.113  38.460  0.00  0.00    +0.124 A 
ATOM     19  N   UNL     1      43.535  79.186  39.355  0.00  0.00    -0.208 NA
ATOM     20  C   UNL     1      44.289  78.786  40.398  0.00  0.00    +0.258 A 
ATOM     21  N   UNL     1      45.499  79.356  40.562  0.00  0.00    -0.192 NA
ATOM     22  C   UNL     1      45.922  80.294  39.700  0.00  0.00    +0.167 A 
ATOM     23  N   UNL     1      43.816  77.782  41.306  0.00  0.00    -0.086 NA
ENDBRANCH  13  14
ENDBRANCH   1  13
TORSDOF 9
