REMARK  Name = Famotidine
REMARK  7 active torsions:
REMARK  status: ('A' for Active; 'I' for Inactive)
REMARK    1  A    between atoms: C_2  and  C_10
REMARK    2  A    between atoms: C_4  and  N_6
REMARK    3  A    between atoms: C_10  and  S_11
REMARK    4  A    between atoms: S_11  and  C_12
REMARK    5  A    between atoms: C_12  and  C_13
REMARK    6  A    between atoms: C_13  and  C_14
REMARK    7  A    between atoms: N_15  and  S_16
REMARK                            x       y       z     vdW  Elec       q    Type
REMARK                         _______ _______ _______ _____ _____    ______ ____
ROOT
ATOM      1  C   UNL     1      45.945  83.041  41.463  0.00  0.00    +0.104 C 
ENDROOT
BRANCH   1   3
ATOM      2  C   UNL     1      46.008  80.566  41.812  0.00  0.00    +0.054 A 
ATOM      3  C   UNL     1      45.583  81.623  41.045  0.00  0.00    +0.079 A 
ATOM      4  N   UNL     1      44.885  81.352  39.989  0.00  0.00    -0.224 NA
ATOM      5  C   UNL     1      44.608  80.092  39.687  0.00  0.00    +0.197 A 
ATOM      6  S   UNL     1      45.368  79.236  40.954  0.00  0.00    -0.047 S 
BRANCH   5   7
ATOM      7  N   UNL     1      43.850  79.588  38.561  0.00  0.00    -0.182 NA
ATOM      8  C   UNL     1      43.319  78.421  38.684  0.00  0.00    +0.290 C 
ATOM      9  N   UNL     1      42.249  78.024  37.840  0.00  0.00    -0.104 NA
ATOM     10  N   UNL     1      43.768  77.487  39.651  0.00  0.00    -0.104 NA
ENDBRANCH   5   7
ENDBRANCH   1   3
BRANCH   1  11
ATOM     11  S   UNL     1      47.716  83.291  41.531  0.00  0.00    -0.133 S 
BRANCH  11  12
ATOM     12  C   UNL     1      48.202  84.755  42.439  0.00  0.00    +0.066 C 
BRANCH  12  13
ATOM     13  C   UNL     1      48.979  84.475  43.697  0.00  0.00    +0.078 C 
BRANCH  13  14
ATOM     14  C   UNL     1      50.283  83.863  43.448  0.00  0.00    +0.170 C 
ATOM     15  N   UNL     1      50.828  83.966  42.266  0.00  0.00    -0.101 NA
ATOM     16  N   UNL     1      51.010  83.150  44.429  0.00  0.00    -0.110 NA
BRANCH  15  17
ATOM     17  S   UNL     1      52.461  83.482  41.966  0.00  0.00    +0.172 S 
ATOM     18  O   UNL     1      53.393  84.134  42.978  0.00  0.00    -0.132 OA
ATOM     19  O   UNL     1      52.812  83.921  40.577  0.00  0.00    -0.132 OA
ATOM     20  N   UNL     1      52.633  81.771  42.084  0.00  0.00    +0.058 NA
ENDBRANCH  15  17
ENDBRANCH  13  14
ENDBRANCH  12  13
ENDBRANCH  11  12
ENDBRANCH   1  11
TORSDOF 7
