REMARK  Name = Febarbamate
REMARK  11 active torsions:
REMARK  status: ('A' for Active; 'I' for Inactive)
REMARK    1  A    between atoms: C_2  and  C_3
REMARK    2  A    between atoms: C_3  and  C_4
REMARK    3  A    between atoms: C_4  and  O_5
REMARK    4  A    between atoms: O_5  and  C_6
REMARK    5  A    between atoms: C_6  and  C_7
REMARK    6  A    between atoms: C_7  and  C_8
REMARK    7  A    between atoms: C_7  and  O_26
REMARK    8  A    between atoms: C_8  and  N_9
REMARK    9  A    between atoms: C_12  and  C_18
REMARK   10  A    between atoms: C_12  and  C_20
REMARK   11  A    between atoms: O_26  and  C_27
REMARK                            x       y       z     vdW  Elec       q    Type
REMARK                         _______ _______ _______ _____ _____    ______ ____
ROOT
ATOM      1  N   UNL     1      45.144  79.022  39.724  0.00  0.00    -0.208 N 
ATOM      2  C   UNL     1      44.316  78.240  40.550  0.00  0.00    +0.244 C 
ATOM      3  O   UNL     1      44.622  78.038  41.751  0.00  0.00    -0.274 OA
ATOM      4  C   UNL     1      43.074  77.643  40.021  0.00  0.00    +0.159 C 
ATOM      5  C   UNL     1      42.550  78.335  38.841  0.00  0.00    +0.260 C 
ATOM      6  O   UNL     1      41.329  78.275  38.490  0.00  0.00    -0.272 OA
ATOM      7  N   UNL     1      43.407  79.121  38.023  0.00  0.00    -0.126 NA
ATOM      8  C   UNL     1      44.718  79.490  38.428  0.00  0.00    +0.336 C 
ATOM      9  O   UNL     1      45.485  80.189  37.709  0.00  0.00    -0.250 OA
ENDROOT
BRANCH   4  10
ATOM     10  C   UNL     1      43.192  76.198  39.730  0.00  0.00    -0.006 A 
ATOM     11  C   UNL     1      43.543  75.780  38.481  0.00  0.00    -0.003 A 
ATOM     12  C   UNL     1      43.630  74.413  38.244  0.00  0.00    -0.000 A 
ATOM     13  C   UNL     1      43.378  73.480  39.212  0.00  0.00    -0.000 A 
ATOM     14  C   UNL     1      43.022  73.890  40.482  0.00  0.00    -0.000 A 
ATOM     15  C   UNL     1      42.935  75.246  40.718  0.00  0.00    -0.003 A 
ENDBRANCH   4  10
BRANCH   4  16
ATOM     16  C   UNL     1      42.066  77.711  41.188  0.00  0.00    +0.022 C 
ATOM     17  C   UNL     1      42.062  79.083  41.802  0.00  0.00    +0.001 C 
ENDBRANCH   4  16
BRANCH   1  18
ATOM     18  C   UNL     1      46.469  79.412  40.129  0.00  0.00    +0.149 C 
BRANCH  18  19
ATOM     19  C   UNL     1      46.494  80.730  40.830  0.00  0.00    +0.220 C 
BRANCH  19  20
ATOM     20  C   UNL     1      47.422  80.556  42.037  0.00  0.00    +0.187 C 
BRANCH  20  21
ATOM     21  O   UNL     1      48.490  81.410  41.987  0.00  0.00    -0.350 OA
BRANCH  21  22
ATOM     22  C   UNL     1      48.405  82.524  42.770  0.00  0.00    +0.142 C 
BRANCH  22  23
ATOM     23  C   UNL     1      49.529  83.495  42.689  0.00  0.00    +0.032 C 
BRANCH  23  25
ATOM     24  C   UNL     1      50.101  84.614  44.889  0.00  0.00    +0.000 C 
ATOM     25  C   UNL     1      49.385  84.687  43.587  0.00  0.00    +0.003 C 
ENDBRANCH  23  25
ENDBRANCH  22  23
ENDBRANCH  21  22
ENDBRANCH  20  21
ENDBRANCH  19  20
BRANCH  19  26
ATOM     26  O   UNL     1      47.080  81.742  40.038  0.00  0.00    -0.432 OA
BRANCH  26  27
ATOM     27  C   UNL     1      46.326  82.358  39.035  0.00  0.00    +0.441 C 
ATOM     28  O   UNL     1      45.110  82.035  38.947  0.00  0.00    -0.223 OA
ATOM     29  N   UNL     1      46.937  83.298  38.179  0.00  0.00    -0.048 NA
ENDBRANCH  26  27
ENDBRANCH  19  26
ENDBRANCH  18  19
ENDBRANCH   1  18
TORSDOF 11
