REMARK  Name = Febuxostat
REMARK  6 active torsions:
REMARK  status: ('A' for Active; 'I' for Inactive)
REMARK    1  A    between atoms: C_3  and  C_20
REMARK    2  A    between atoms: C_5  and  C_7
REMARK    3  A    between atoms: C_9  and  C_18
REMARK    4  A    between atoms: C_10  and  O_13
REMARK    5  A    between atoms: O_13  and  C_14
REMARK    6  A    between atoms: C_14  and  C_15
REMARK                            x       y       z     vdW  Elec       q    Type
REMARK                         _______ _______ _______ _____ _____    ______ ____
ROOT
ATOM      1  C   UNL     1      44.930  78.994  40.399  0.00  0.00    +0.025 A 
ATOM      2  C   UNL     1      45.062  80.155  39.630  0.00  0.00    +0.015 A 
ATOM      3  C   UNL     1      46.031  81.086  39.871  0.00  0.00    +0.102 A 
ATOM      4  C   UNL     1      46.914  80.893  40.898  0.00  0.00    +0.148 A 
ATOM      5  C   UNL     1      46.797  79.743  41.672  0.00  0.00    +0.038 A 
ATOM      6  C   UNL     1      45.804  78.796  41.421  0.00  0.00    +0.005 A 
ENDROOT
BRANCH   1  11
ATOM      7  C   UNL     1      41.283  77.285  37.551  0.00  0.00    +0.053 C 
ATOM      8  C   UNL     1      42.181  77.251  38.773  0.00  0.00    +0.072 A 
ATOM      9  C   UNL     1      42.027  76.256  39.699  0.00  0.00    +0.124 A 
ATOM     10  S   UNL     1      43.249  76.669  40.832  0.00  0.00    -0.060 S 
ATOM     11  C   UNL     1      43.861  78.058  40.062  0.00  0.00    +0.111 A 
ATOM     12  N   UNL     1      43.103  78.136  38.979  0.00  0.00    -0.242 NA
BRANCH   9  13
ATOM     13  C   UNL     1      41.073  75.135  39.721  0.00  0.00    +0.395 C 
ATOM     14  O   UNL     1      41.151  74.315  40.636  0.00  0.00    -0.240 OA
ATOM     15  O   UNL     1      40.106  74.989  38.747  0.00  0.00    -0.240 OA
ENDBRANCH   9  13
ENDBRANCH   1  11
BRANCH   3  16
ATOM     16  C   UNL     1      46.070  82.250  39.009  0.00  0.00    +0.103 C 
ATOM     17  N   UNL     1      46.107  83.164  38.309  0.00  0.00    -0.191 NA
ENDBRANCH   3  16
BRANCH   4  18
ATOM     18  O   UNL     1      47.887  81.851  41.121  0.00  0.00    -0.475 OA
BRANCH  18  19
ATOM     19  C   UNL     1      48.459  81.939  42.392  0.00  0.00    +0.205 C 
BRANCH  19  20
ATOM     20  C   UNL     1      49.498  83.045  42.453  0.00  0.00    +0.044 C 
ATOM     21  C   UNL     1      49.010  84.041  43.508  0.00  0.00    +0.004 C 
ATOM     22  C   UNL     1      50.830  82.545  42.910  0.00  0.00    +0.004 C 
ENDBRANCH  19  20
ENDBRANCH  18  19
ENDBRANCH   4  18
TORSDOF 6
