REMARK  Name = Fedratinib
REMARK  9 active torsions:
REMARK  status: ('A' for Active; 'I' for Inactive)
REMARK    1  A    between atoms: N_8  and  C_9
REMARK    2  A    between atoms: C_11  and  S_15
REMARK    3  A    between atoms: S_15  and  N_18
REMARK    4  A    between atoms: N_18  and  C_19
REMARK    5  A    between atoms: N_23  and  C_24
REMARK    6  A    between atoms: C_27  and  O_30
REMARK    7  A    between atoms: O_30  and  C_31
REMARK    8  A    between atoms: C_31  and  C_32
REMARK    9  A    between atoms: C_32  and  N_33
REMARK                            x       y       z     vdW  Elec       q    Type
REMARK                         _______ _______ _______ _____ _____    ______ ____
ROOT
ATOM      1  C   UNL     1      47.820  82.922  40.791  0.00  0.00    +0.036 C 
ATOM      2  C   UNL     1      46.764  82.165  40.059  0.00  0.00    +0.031 A 
ATOM      3  C   UNL     1      45.949  82.849  39.144  0.00  0.00    +0.100 A 
ATOM      4  N   UNL     1      44.984  82.203  38.486  0.00  0.00    -0.211 NA
ATOM      5  C   UNL     1      44.728  80.897  38.643  0.00  0.00    +0.242 A 
ATOM      6  N   UNL     1      45.511  80.249  39.518  0.00  0.00    -0.196 NA
ATOM      7  C   UNL     1      46.522  80.837  40.234  0.00  0.00    +0.152 A 
ATOM      8  N   UNL     1      47.241  80.015  41.112  0.00  0.00    -0.194 NA
ATOM      9  N   UNL     1      43.675  80.240  37.945  0.00  0.00    -0.178 NA
ENDROOT
BRANCH   8  10
ATOM     10  C   UNL     1      47.802  80.303  42.346  0.00  0.00    +0.073 A 
ATOM     11  C   UNL     1      49.084  80.866  42.365  0.00  0.00    +0.037 A 
ATOM     12  C   UNL     1      49.718  81.216  43.538  0.00  0.00    +0.125 A 
ATOM     13  C   UNL     1      49.049  80.996  44.718  0.00  0.00    +0.020 A 
ATOM     14  C   UNL     1      47.782  80.442  44.724  0.00  0.00    +0.003 A 
ATOM     15  C   UNL     1      47.164  80.097  43.532  0.00  0.00    +0.017 A 
BRANCH  12  16
ATOM     16  S   UNL     1      51.319  81.906  43.437  0.00  0.00    +0.077 S 
ATOM     17  O   UNL     1      51.824  82.041  44.855  0.00  0.00    -0.152 OA
ATOM     18  O   UNL     1      52.203  80.962  42.662  0.00  0.00    -0.152 OA
BRANCH  16  19
ATOM     19  N   UNL     1      51.291  83.391  42.593  0.00  0.00    -0.081 NA
BRANCH  19  20
ATOM     20  C   UNL     1      50.663  84.463  43.336  0.00  0.00    +0.083 C 
ATOM     21  C   UNL     1      51.316  84.569  44.710  0.00  0.00    +0.019 C 
ATOM     22  C   UNL     1      49.179  84.316  43.489  0.00  0.00    +0.019 C 
ATOM     23  C   UNL     1      50.947  85.761  42.600  0.00  0.00    +0.019 C 
ENDBRANCH  19  20
ENDBRANCH  16  19
ENDBRANCH  12  16
ENDBRANCH   8  10
BRANCH   9  24
ATOM     24  C   UNL     1      43.041  79.071  38.352  0.00  0.00    +0.074 A 
ATOM     25  C   UNL     1      42.016  78.540  37.588  0.00  0.00    +0.020 A 
ATOM     26  C   UNL     1      41.389  77.374  37.943  0.00  0.00    +0.038 A 
ATOM     27  C   UNL     1      41.739  76.649  39.093  0.00  0.00    +0.139 A 
ATOM     28  C   UNL     1      42.754  77.187  39.834  0.00  0.00    +0.038 A 
ATOM     29  C   UNL     1      43.403  78.390  39.471  0.00  0.00    +0.020 A 
BRANCH  27  30
ATOM     30  O   UNL     1      41.076  75.496  39.388  0.00  0.00    -0.474 OA
BRANCH  30  31
ATOM     31  C   UNL     1      40.054  74.823  38.777  0.00  0.00    +0.223 C 
BRANCH  31  32
ATOM     32  C   UNL     1      40.184  73.356  38.581  0.00  0.00    +0.120 C 
BRANCH  32  33
ATOM     33  N   UNL     1      39.070  72.793  37.816  0.00  0.00    -0.270 NA
ATOM     34  C   UNL     1      39.133  71.371  37.939  0.00  0.00    +0.072 C 
ATOM     35  C   UNL     1      39.148  70.729  36.599  0.00  0.00    +0.019 C 
ATOM     36  C   UNL     1      38.960  71.852  35.633  0.00  0.00    +0.019 C 
ATOM     37  C   UNL     1      39.243  73.099  36.402  0.00  0.00    +0.072 C 
ENDBRANCH  32  33
ENDBRANCH  31  32
ENDBRANCH  30  31
ENDBRANCH  27  30
ENDBRANCH   9  24
TORSDOF 9
