REMARK  Name = Felodipine
REMARK  6 active torsions:
REMARK  status: ('A' for Active; 'I' for Inactive)
REMARK    1  A    between atoms: C_2  and  O_3
REMARK    2  A    between atoms: O_3  and  C_4
REMARK    3  A    between atoms: C_4  and  C_6
REMARK    4  A    between atoms: C_10  and  C_20
REMARK    5  A    between atoms: C_11  and  C_12
REMARK    6  A    between atoms: C_20  and  O_22
REMARK                            x       y       z     vdW  Elec       q    Type
REMARK                         _______ _______ _______ _____ _____    ______ ____
ROOT
ATOM      1  C   UNL     1      46.344  80.888  40.509  0.00  0.00    +0.073 C 
ATOM      2  C   UNL     1      45.611  80.974  39.401  0.00  0.00    +0.051 C 
ATOM      3  N   UNL     1      46.009  81.736  38.273  0.00  0.00    -0.221 NA
ATOM      4  C   UNL     1      47.235  82.432  38.328  0.00  0.00    +0.051 C 
ATOM      5  C   UNL     1      47.985  82.375  39.390  0.00  0.00    +0.073 C 
ATOM      6  C   UNL     1      47.624  81.600  40.581  0.00  0.00    +0.082 C 
ATOM      7  C   UNL     1      47.663  83.248  37.130  0.00  0.00    +0.049 C 
ATOM      8  C   UNL     1      44.329  80.239  39.357  0.00  0.00    +0.049 C 
ENDROOT
BRANCH   6   9
ATOM      9  C   UNL     1      47.776  82.449  41.804  0.00  0.00    -0.002 A 
ATOM     10  C   UNL     1      48.859  82.253  42.648  0.00  0.00    +0.065 A 
ATOM     11  C   UNL     1      49.012  82.999  43.798  0.00  0.00    +0.068 A 
ATOM     12  C   UNL     1      48.105  83.954  44.144  0.00  0.00    +0.012 A 
ATOM     13  C   UNL     1      47.032  84.157  43.321  0.00  0.00    +0.001 A 
ATOM     14  C   UNL     1      46.862  83.415  42.159  0.00  0.00    -0.003 A 
ATOM     15 CL   UNL     1      50.407  82.721  44.851  0.00  0.00    -0.081 Cl
ATOM     16 CL   UNL     1      50.059  81.039  42.259  0.00  0.00    -0.082 Cl
ENDBRANCH   6   9
BRANCH   1  17
ATOM     17  C   UNL     1      45.892  80.090  41.647  0.00  0.00    +0.339 C 
ATOM     18  O   UNL     1      46.342  80.309  42.795  0.00  0.00    -0.245 OA
BRANCH  17  19
ATOM     19  O   UNL     1      44.966  79.065  41.553  0.00  0.00    -0.446 OA
BRANCH  19  21
ATOM     20  C   UNL     1      43.707  77.298  42.646  0.00  0.00    +0.051 C 
ATOM     21  C   UNL     1      45.037  77.870  42.276  0.00  0.00    +0.209 C 
ENDBRANCH  19  21
ENDBRANCH  17  19
ENDBRANCH   1  17
BRANCH   5  22
ATOM     22  C   UNL     1      49.282  83.113  39.451  0.00  0.00    +0.339 C 
ATOM     23  O   UNL     1      49.955  83.333  38.423  0.00  0.00    -0.245 OA
BRANCH  22  24
ATOM     24  O   UNL     1      49.798  83.587  40.641  0.00  0.00    -0.442 OA
ATOM     25  C   UNL     1      51.124  84.102  40.706  0.00  0.00    +0.256 C 
ENDBRANCH  22  24
ENDBRANCH   5  22
TORSDOF 6
