REMARK  Name = Fenhexamid
REMARK  2 active torsions:
REMARK  status: ('A' for Active; 'I' for Inactive)
REMARK    1  A    between atoms: C_2  and  C_8
REMARK    2  A    between atoms: N_10  and  C_11
REMARK                            x       y       z     vdW  Elec       q    Type
REMARK                         _______ _______ _______ _____ _____    ______ ____
ROOT
ATOM      1  C   UNL     1      49.297  82.103  41.629  0.00  0.00    +0.245 C 
ATOM      2  O   UNL     1      49.918  81.821  40.596  0.00  0.00    -0.273 OA
ATOM      3  N   UNL     1      47.940  81.672  41.794  0.00  0.00    -0.178 NA
ENDROOT
BRANCH   3   4
ATOM      4  C   UNL     1      47.051  81.503  40.703  0.00  0.00    +0.085 A 
ATOM      5  C   UNL     1      46.301  80.358  40.611  0.00  0.00    +0.087 A 
ATOM      6  C   UNL     1      45.442  80.224  39.531  0.00  0.00    +0.108 A 
ATOM      7  C   UNL     1      45.376  81.246  38.598  0.00  0.00    +0.207 A 
ATOM      8  C   UNL     1      46.126  82.382  38.698  0.00  0.00    +0.044 A 
ATOM      9  C   UNL     1      46.987  82.529  39.769  0.00  0.00    +0.021 A 
ATOM     10  O   UNL     1      44.519  81.094  37.537  0.00  0.00    -0.286 OA
ATOM     11 CL   UNL     1      44.485  78.767  39.409  0.00  0.00    -0.078 Cl
ATOM     12 CL   UNL     1      46.432  79.101  41.827  0.00  0.00    -0.080 Cl
ENDBRANCH   3   4
BRANCH   1  14
ATOM     13  C   UNL     1      49.813  81.988  43.980  0.00  0.00    +0.009 C 
ATOM     14  C   UNL     1      49.872  82.888  42.765  0.00  0.00    +0.071 C 
ATOM     15  C   UNL     1      49.003  84.114  42.925  0.00  0.00    +0.009 C 
ATOM     16  C   UNL     1      49.428  84.820  44.176  0.00  0.00    +0.000 C 
ATOM     17  C   UNL     1      50.892  84.966  44.347  0.00  0.00    +0.000 C 
ATOM     18  C   UNL     1      51.727  84.525  43.204  0.00  0.00    +0.000 C 
ATOM     19  C   UNL     1      51.260  83.326  42.476  0.00  0.00    +0.009 C 
ENDBRANCH   1  14
TORSDOF 2
