REMARK  Name = Fenoprofen
REMARK  4 active torsions:
REMARK  status: ('A' for Active; 'I' for Inactive)
REMARK    1  A    between atoms: C_2  and  C_3
REMARK    2  A    between atoms: C_2  and  C_16
REMARK    3  A    between atoms: C_5  and  O_9
REMARK    4  A    between atoms: O_9  and  C_10
REMARK                            x       y       z     vdW  Elec       q    Type
REMARK                         _______ _______ _______ _____ _____    ______ ____
ROOT
ATOM      1  C   UNL     1      45.868  80.318  39.744  0.00  0.00    -0.009 A 
ATOM      2  C   UNL     1      46.621  80.335  40.899  0.00  0.00    +0.034 A 
ATOM      3  C   UNL     1      47.373  81.445  41.264  0.00  0.00    +0.145 A 
ATOM      4  C   UNL     1      47.363  82.551  40.450  0.00  0.00    +0.037 A 
ATOM      5  C   UNL     1      46.624  82.572  39.289  0.00  0.00    +0.003 A 
ATOM      6  C   UNL     1      45.889  81.449  38.960  0.00  0.00    -0.004 A 
ENDROOT
BRANCH   1   8
ATOM      7  C   UNL     1      44.653  78.444  40.688  0.00  0.00    +0.017 C 
ATOM      8  C   UNL     1      45.073  79.118  39.378  0.00  0.00    +0.126 C 
BRANCH   8   9
ATOM      9  C   UNL     1      43.840  79.455  38.657  0.00  0.00    +0.368 C 
ATOM     10  O   UNL     1      43.862  80.388  37.815  0.00  0.00    -0.245 OA
ATOM     11  O   UNL     1      42.669  78.758  38.896  0.00  0.00    -0.245 OA
ENDBRANCH   8   9
ENDBRANCH   1   8
BRANCH   3  12
ATOM     12  O   UNL     1      48.117  81.425  42.431  0.00  0.00    -0.454 OA
BRANCH  12  13
ATOM     13  C   UNL     1      48.731  82.608  42.816  0.00  0.00    +0.145 A 
ATOM     14  C   UNL     1      48.015  83.724  43.155  0.00  0.00    +0.037 A 
ATOM     15  C   UNL     1      48.633  84.886  43.533  0.00  0.00    +0.003 A 
ATOM     16  C   UNL     1      50.009  84.954  43.579  0.00  0.00    +0.000 A 
ATOM     17  C   UNL     1      50.748  83.854  43.245  0.00  0.00    +0.003 A 
ATOM     18  C   UNL     1      50.126  82.695  42.868  0.00  0.00    +0.037 A 
ENDBRANCH  12  13
ENDBRANCH   3  12
TORSDOF 4
