REMARK  Name = Fenoldopam
REMARK  1 active torsions:
REMARK  status: ('A' for Active; 'I' for Inactive)
REMARK    1  A    between atoms: C_5  and  C_15
REMARK                            x       y       z     vdW  Elec       q    Type
REMARK                         _______ _______ _______ _____ _____    ______ ____
ROOT
ATOM      1  C   UNL     1      47.480  78.570  41.074  0.00  0.00    +0.046 C 
ATOM      2  C   UNL     1      47.350  78.478  42.572  0.00  0.00    +0.093 C 
ATOM      3  N   UNL     1      46.073  78.962  43.049  0.00  0.00    -0.217 NA
ATOM      4  C   UNL     1      44.959  78.243  42.476  0.00  0.00    +0.097 C 
ATOM      5  C   UNL     1      44.341  78.965  41.300  0.00  0.00    +0.062 C 
ATOM      6  C   UNL     1      45.331  79.879  40.632  0.00  0.00    -0.017 A 
ATOM      7  C   UNL     1      44.763  80.995  40.074  0.00  0.00    +0.041 A 
ATOM      8  C   UNL     1      45.536  81.952  39.412  0.00  0.00    +0.235 A 
ATOM      9  C   UNL     1      46.899  81.789  39.309  0.00  0.00    +0.244 A 
ATOM     10  C   UNL     1      47.444  80.661  39.878  0.00  0.00    +0.096 A 
ATOM     11  C   UNL     1      46.697  79.711  40.531  0.00  0.00    -0.010 A 
ATOM     12 CL   UNL     1      49.172  80.436  39.757  0.00  0.00    -0.079 Cl
ATOM     13  O   UNL     1      47.667  82.743  38.650  0.00  0.00    -0.282 OA
ATOM     14  O   UNL     1      44.929  83.066  38.860  0.00  0.00    -0.283 OA
ENDROOT
BRANCH   5  15
ATOM     15  C   UNL     1      43.700  78.082  40.324  0.00  0.00    -0.017 A 
ATOM     16  C   UNL     1      43.623  76.703  40.446  0.00  0.00    -0.001 A 
ATOM     17  C   UNL     1      43.011  75.910  39.507  0.00  0.00    +0.042 A 
ATOM     18  C   UNL     1      42.441  76.452  38.395  0.00  0.00    +0.196 A 
ATOM     19  C   UNL     1      42.493  77.815  38.232  0.00  0.00    +0.042 A 
ATOM     20  C   UNL     1      43.104  78.604  39.170  0.00  0.00    -0.001 A 
ATOM     21  O   UNL     1      41.831  75.618  37.466  0.00  0.00    -0.287 OA
ENDBRANCH   5  15
TORSDOF 1
