REMARK  Name = Fenofibrate
REMARK  7 active torsions:
REMARK  status: ('A' for Active; 'I' for Inactive)
REMARK    1  A    between atoms: C_2  and  O_4
REMARK    2  A    between atoms: O_4  and  C_5
REMARK    3  A    between atoms: C_5  and  C_7
REMARK    4  A    between atoms: C_7  and  O_10
REMARK    5  A    between atoms: O_10  and  C_11
REMARK    6  A    between atoms: C_14  and  C_17
REMARK    7  A    between atoms: C_17  and  C_19
REMARK                            x       y       z     vdW  Elec       q    Type
REMARK                         _______ _______ _______ _____ _____    ______ ____
ROOT
ATOM      1  C   UNL     1      43.368  78.269  40.085  0.00  0.00    +0.139 A 
ATOM      2  C   UNL     1      43.069  79.126  39.019  0.00  0.00    +0.037 A 
ATOM      3  C   UNL     1      43.917  80.185  38.739  0.00  0.00    +0.006 A 
ATOM      4  C   UNL     1      45.060  80.452  39.460  0.00  0.00    +0.039 A 
ATOM      5  C   UNL     1      45.326  79.576  40.514  0.00  0.00    +0.006 A 
ATOM      6  C   UNL     1      44.506  78.506  40.828  0.00  0.00    +0.037 A 
ENDROOT
BRANCH   4   7
ATOM      7  C   UNL     1      45.914  81.590  39.158  0.00  0.00    +0.196 C 
ATOM      8  O   UNL     1      45.754  82.252  38.099  0.00  0.00    -0.287 OA
BRANCH   7   9
ATOM      9  C   UNL     1      46.968  81.978  40.080  0.00  0.00    +0.039 A 
ATOM     10  C   UNL     1      48.293  82.087  39.737  0.00  0.00    +0.004 A 
ATOM     11  C   UNL     1      49.301  82.424  40.623  0.00  0.00    +0.011 A 
ATOM     12  C   UNL     1      48.976  82.668  41.935  0.00  0.00    +0.058 A 
ATOM     13  C   UNL     1      47.665  82.570  42.317  0.00  0.00    +0.011 A 
ATOM     14  C   UNL     1      46.682  82.235  41.425  0.00  0.00    +0.004 A 
ATOM     15 CL   UNL     1      50.245  83.096  43.080  0.00  0.00    -0.082 Cl
ENDBRANCH   7   9
ENDBRANCH   4   7
BRANCH   1  16
ATOM     16  O   UNL     1      42.522  77.208  40.368  0.00  0.00    -0.472 OA
BRANCH  16  17
ATOM     17  C   UNL     1      41.694  76.734  39.331  0.00  0.00    +0.221 C 
ATOM     18  C   UNL     1      42.552  76.295  38.188  0.00  0.00    +0.055 C 
ATOM     19  C   UNL     1      40.883  75.529  39.829  0.00  0.00    +0.055 C 
BRANCH  17  20
ATOM     20  C   UNL     1      40.670  77.742  38.938  0.00  0.00    +0.353 C 
ATOM     21  O   UNL     1      41.061  78.912  38.727  0.00  0.00    -0.246 OA
BRANCH  20  22
ATOM     22  O   UNL     1      39.327  77.471  38.793  0.00  0.00    -0.450 OA
BRANCH  22  24
ATOM     23  C   UNL     1      38.030  78.356  36.917  0.00  0.00    +0.047 C 
ATOM     24  C   UNL     1      38.386  78.452  38.368  0.00  0.00    +0.169 C 
ATOM     25  C   UNL     1      37.171  78.304  39.282  0.00  0.00    +0.047 C 
ENDBRANCH  22  24
ENDBRANCH  20  22
ENDBRANCH  17  20
ENDBRANCH  16  17
ENDBRANCH   1  16
TORSDOF 7
