REMARK  Name = FENOFIBRIC_ACID
REMARK  5 active torsions:
REMARK  status: ('A' for Active; 'I' for Inactive)
REMARK    1  A    between atoms: C_2  and  C_4
REMARK    2  A    between atoms: C_2  and  O_7
REMARK    3  A    between atoms: O_7  and  C_8
REMARK    4  A    between atoms: C_11  and  C_14
REMARK    5  A    between atoms: C_14  and  C_16
REMARK                            x       y       z     vdW  Elec       q    Type
REMARK                         _______ _______ _______ _____ _____    ______ ____
ROOT
ATOM      1  C   UNL     1      48.686  82.197  41.182  0.00  0.00    +0.139 A 
ATOM      2  C   UNL     1      47.931  81.159  41.659  0.00  0.00    +0.037 A 
ATOM      3  C   UNL     1      46.728  80.766  41.069  0.00  0.00    +0.006 A 
ATOM      4  C   UNL     1      46.253  81.410  39.979  0.00  0.00    +0.039 A 
ATOM      5  C   UNL     1      47.018  82.493  39.466  0.00  0.00    +0.006 A 
ATOM      6  C   UNL     1      48.176  82.835  40.073  0.00  0.00    +0.037 A 
ENDROOT
BRANCH   4   7
ATOM      7  C   UNL     1      45.079  81.109  39.231  0.00  0.00    +0.196 C 
ATOM      8  O   UNL     1      44.730  82.043  38.355  0.00  0.00    -0.287 OA
BRANCH   7   9
ATOM      9  C   UNL     1      44.235  79.956  39.270  0.00  0.00    +0.039 A 
ATOM     10  C   UNL     1      44.599  78.993  40.256  0.00  0.00    +0.004 A 
ATOM     11  C   UNL     1      43.915  77.840  40.400  0.00  0.00    +0.011 A 
ATOM     12  C   UNL     1      42.842  77.588  39.576  0.00  0.00    +0.058 A 
ATOM     13  C   UNL     1      42.480  78.494  38.628  0.00  0.00    +0.011 A 
ATOM     14  C   UNL     1      43.186  79.705  38.464  0.00  0.00    +0.004 A 
ATOM     15 CL   UNL     1      41.957  76.098  39.764  0.00  0.00    -0.082 Cl
ENDBRANCH   7   9
ENDBRANCH   4   7
BRANCH   1  16
ATOM     16  O   UNL     1      49.828  82.570  41.737  0.00  0.00    -0.472 OA
BRANCH  16  18
ATOM     17  C   UNL     1      49.130  83.632  43.733  0.00  0.00    +0.055 C 
ATOM     18  C   UNL     1      50.273  83.372  42.740  0.00  0.00    +0.225 C 
ATOM     19  C   UNL     1      50.661  84.719  42.085  0.00  0.00    +0.055 C 
BRANCH  18  20
ATOM     20  C   UNL     1      51.403  82.914  43.548  0.00  0.00    +0.400 C 
ATOM     21  O   UNL     1      51.281  83.039  44.819  0.00  0.00    -0.242 OA
ATOM     22  O   UNL     1      52.582  82.364  43.104  0.00  0.00    -0.242 OA
ENDBRANCH  18  20
ENDBRANCH  16  18
ENDBRANCH   1  16
TORSDOF 5
