REMARK  Name = Fenoterol
REMARK  6 active torsions:
REMARK  status: ('A' for Active; 'I' for Inactive)
REMARK    1  A    between atoms: C_2  and  C_3
REMARK    2  A    between atoms: C_2  and  N_11
REMARK    3  A    between atoms: C_3  and  C_4
REMARK    4  A    between atoms: N_11  and  C_12
REMARK    5  A    between atoms: C_12  and  C_13
REMARK    6  A    between atoms: C_13  and  C_14
REMARK                            x       y       z     vdW  Elec       q    Type
REMARK                         _______ _______ _______ _____ _____    ______ ____
ROOT
ATOM      1  N   UNL     1      47.933  82.831  42.944  0.00  0.00    -0.216 NA
ENDROOT
BRANCH   1   3
ATOM      2  C   UNL     1      47.336  85.088  43.496  0.00  0.00    +0.019 C 
ATOM      3  C   UNL     1      48.426  84.163  42.986  0.00  0.00    +0.077 C 
BRANCH   3   4
ATOM      4  C   UNL     1      49.620  84.243  43.907  0.00  0.00    +0.044 C 
BRANCH   4   5
ATOM      5  C   UNL     1      50.841  83.684  43.252  0.00  0.00    -0.021 A 
ATOM      6  C   UNL     1      51.297  82.444  43.602  0.00  0.00    -0.001 A 
ATOM      7  C   UNL     1      52.438  81.960  42.964  0.00  0.00    +0.042 A 
ATOM      8  C   UNL     1      53.117  82.671  42.008  0.00  0.00    +0.196 A 
ATOM      9  C   UNL     1      52.657  83.926  41.653  0.00  0.00    +0.042 A 
ATOM     10  C   UNL     1      51.530  84.408  42.281  0.00  0.00    -0.001 A 
ATOM     11  O   UNL     1      54.262  82.154  41.386  0.00  0.00    -0.287 OA
ENDBRANCH   4   5
ENDBRANCH   3   4
ENDBRANCH   1   3
BRANCH   1  12
ATOM     12  C   UNL     1      47.285  82.420  41.747  0.00  0.00    +0.126 C 
BRANCH  12  13
ATOM     13  C   UNL     1      46.921  80.974  41.839  0.00  0.00    +0.192 C 
ATOM     14  O   UNL     1      48.046  80.126  41.657  0.00  0.00    -0.217 OA
BRANCH  13  15
ATOM     15  C   UNL     1      45.950  80.507  40.819  0.00  0.00    +0.015 A 
ATOM     16  C   UNL     1      45.462  81.268  39.811  0.00  0.00    +0.040 A 
ATOM     17  C   UNL     1      44.538  80.817  38.860  0.00  0.00    +0.199 A 
ATOM     18  C   UNL     1      44.116  79.514  38.983  0.00  0.00    +0.084 A 
ATOM     19  C   UNL     1      44.574  78.688  39.986  0.00  0.00    +0.199 A 
ATOM     20  C   UNL     1      45.480  79.187  40.890  0.00  0.00    +0.040 A 
ATOM     21  O   UNL     1      44.108  77.397  40.045  0.00  0.00    -0.286 OA
ATOM     22  O   UNL     1      44.087  81.668  37.853  0.00  0.00    -0.286 OA
ENDBRANCH  13  15
ENDBRANCH  12  13
ENDBRANCH   1  12
TORSDOF 6
