REMARK  Name = Fenquizone
REMARK  2 active torsions:
REMARK  status: ('A' for Active; 'I' for Inactive)
REMARK    1  A    between atoms: C_4  and  C_7
REMARK    2  A    between atoms: C_12  and  S_18
REMARK                            x       y       z     vdW  Elec       q    Type
REMARK                         _______ _______ _______ _____ _____    ______ ____
ROOT
ATOM      1  C   UNL     1      47.801  82.050  40.618  0.00  0.00    +0.210 C 
ATOM      2  N   UNL     1      47.079  81.077  41.452  0.00  0.00    -0.213 NA
ATOM      3  C   UNL     1      46.085  80.229  40.888  0.00  0.00    +0.073 A 
ATOM      4  C   UNL     1      45.759  78.998  41.436  0.00  0.00    +0.029 A 
ATOM      5  C   UNL     1      44.792  78.177  40.883  0.00  0.00    +0.078 A 
ATOM      6  C   UNL     1      44.131  78.599  39.749  0.00  0.00    +0.136 A 
ATOM      7  C   UNL     1      44.464  79.831  39.207  0.00  0.00    +0.027 A 
ATOM      8  C   UNL     1      45.417  80.648  39.747  0.00  0.00    +0.071 A 
ATOM      9  C   UNL     1      45.802  81.947  39.217  0.00  0.00    +0.268 C 
ATOM     10  O   UNL     1      45.208  82.347  38.181  0.00  0.00    -0.268 OA
ATOM     11  N   UNL     1      46.824  82.744  39.855  0.00  0.00    -0.177 NA
ATOM     12 CL   UNL     1      44.377  76.620  41.574  0.00  0.00    -0.081 Cl
ENDROOT
BRANCH   1  16
ATOM     13  C   UNL     1      50.190  84.387  43.224  0.00  0.00    -0.000 A 
ATOM     14  C   UNL     1      48.823  84.603  43.097  0.00  0.00    -0.000 A 
ATOM     15  C   UNL     1      48.060  83.832  42.243  0.00  0.00    -0.001 A 
ATOM     16  C   UNL     1      48.644  82.831  41.498  0.00  0.00    +0.018 A 
ATOM     17  C   UNL     1      49.994  82.620  41.625  0.00  0.00    -0.001 A 
ATOM     18  C   UNL     1      50.781  83.392  42.486  0.00  0.00    -0.000 A 
ENDBRANCH   1  16
BRANCH   6  19
ATOM     19  S   UNL     1      42.898  77.588  39.016  0.00  0.00    +0.094 S 
ATOM     20  O   UNL     1      42.342  78.223  37.792  0.00  0.00    -0.150 OA
ATOM     21  O   UNL     1      43.507  76.261  38.581  0.00  0.00    -0.150 OA
ATOM     22  N   UNL     1      41.608  77.272  40.113  0.00  0.00    +0.039 NA
ENDBRANCH   6  19
TORSDOF 2
