REMARK  Name = Fentanyl
REMARK  6 active torsions:
REMARK  status: ('A' for Active; 'I' for Inactive)
REMARK    1  A    between atoms: C_2  and  C_3
REMARK    2  A    between atoms: N_5  and  C_6
REMARK    3  A    between atoms: N_5  and  C_20
REMARK    4  A    between atoms: N_9  and  C_12
REMARK    5  A    between atoms: C_12  and  C_13
REMARK    6  A    between atoms: C_13  and  C_14
REMARK                            x       y       z     vdW  Elec       q    Type
REMARK                         _______ _______ _______ _____ _____    ______ ____
ROOT
ATOM      1  C   UNL     1      44.598  78.869  40.792  0.00  0.00    +0.083 C 
ATOM      2  C   UNL     1      45.873  78.372  41.386  0.00  0.00    +0.038 C 
ATOM      3  C   UNL     1      47.110  79.072  40.934  0.00  0.00    +0.074 C 
ATOM      4  N   UNL     1      46.886  80.312  40.284  0.00  0.00    -0.272 NA
ATOM      5  C   UNL     1      45.965  80.254  39.197  0.00  0.00    +0.074 C 
ATOM      6  C   UNL     1      44.637  79.651  39.550  0.00  0.00    +0.038 C 
ENDROOT
BRANCH   1   9
ATOM      7  C   UNL     1      43.650  76.941  41.934  0.00  0.00    +0.229 C 
ATOM      8  O   UNL     1      44.115  77.550  42.987  0.00  0.00    -0.275 OA
ATOM      9  N   UNL     1      43.621  77.750  40.782  0.00  0.00    -0.260 N 
BRANCH   9  10
ATOM     10  C   UNL     1      42.773  77.573  39.685  0.00  0.00    +0.054 A 
ATOM     11  C   UNL     1      42.986  76.782  38.595  0.00  0.00    +0.015 A 
ATOM     12  C   UNL     1      42.071  76.670  37.535  0.00  0.00    +0.001 A 
ATOM     13  C   UNL     1      40.899  77.363  37.548  0.00  0.00    +0.000 A 
ATOM     14  C   UNL     1      40.648  78.163  38.620  0.00  0.00    +0.001 A 
ATOM     15  C   UNL     1      41.553  78.269  39.658  0.00  0.00    +0.015 A 
ENDBRANCH   9  10
BRANCH   7  17
ATOM     16  C   UNL     1      43.190  75.339  43.700  0.00  0.00    +0.010 C 
ATOM     17  C   UNL     1      43.260  75.560  42.162  0.00  0.00    +0.086 C 
ENDBRANCH   7  17
ENDBRANCH   1   9
BRANCH   4  18
ATOM     18  C   UNL     1      46.863  81.480  41.082  0.00  0.00    +0.077 C 
BRANCH  18  19
ATOM     19  C   UNL     1      47.938  82.435  40.612  0.00  0.00    +0.044 C 
BRANCH  19  20
ATOM     20  C   UNL     1      48.535  83.228  41.708  0.00  0.00    -0.021 A 
ATOM     21  C   UNL     1      47.742  84.066  42.460  0.00  0.00    -0.004 A 
ATOM     22  C   UNL     1      48.291  84.804  43.484  0.00  0.00    -0.000 A 
ATOM     23  C   UNL     1      49.654  84.711  43.770  0.00  0.00    -0.000 A 
ATOM     24  C   UNL     1      50.401  83.868  42.998  0.00  0.00    -0.000 A 
ATOM     25  C   UNL     1      49.907  83.109  41.967  0.00  0.00    -0.004 A 
ENDBRANCH  19  20
ENDBRANCH  18  19
ENDBRANCH   4  18
TORSDOF 6
