REMARK  Name = Fentanyl/droperidol
REMARK  17 active torsions:
REMARK  status: ('A' for Active; 'I' for Inactive)
REMARK    1  A    between atoms: C_2  and  C_3
REMARK    2  A    between atoms: N_5  and  C_6
REMARK    3  A    between atoms: N_5  and  C_20
REMARK    4  A    between atoms: N_9  and  C_12
REMARK    5  A    between atoms: C_12  and  C_13
REMARK    6  A    between atoms: C_13  and  C_14
REMARK    7  A    between atoms: N_28  and  C_42
REMARK    8  A    between atoms: C_31  and  N_32
REMARK    9  A    between atoms: C_42  and  C_43
REMARK   10  A    between atoms: C_43  and  C_44
REMARK   11  A    between atoms: C_44  and  C_45
REMARK   12  A    between atoms: C_45  and  C_47
REMARK   13  A    between atoms: C_54  and  C_55
REMARK   14  A    between atoms: C_54  and  C_58
REMARK   15  A    between atoms: C_58  and  C_59
REMARK   16  A    between atoms: C_58  and  C_63
REMARK   17  A    between atoms: C_59  and  C_60
REMARK                            x       y       z     vdW  Elec       q    Type
REMARK                         _______ _______ _______ _____ _____    ______ ____
ROOT
ATOM      1  C   UNL     1      45.062  77.802  41.571  0.00  0.00    +0.083 C 
ATOM      2  C   UNL     1      45.657  77.893  40.162  0.00  0.00    +0.038 C 
ATOM      3  C   UNL     1      44.454  78.205  39.264  0.00  0.00    +0.074 C 
ATOM      4  N   UNL     1      43.456  77.191  39.361  0.00  0.00    -0.272 NA
ATOM      5  C   UNL     1      43.014  76.866  40.678  0.00  0.00    +0.074 C 
ATOM      6  C   UNL     1      44.223  76.542  41.569  0.00  0.00    +0.038 C 
ENDROOT
BRANCH   1   9
ATOM      7  C   UNL     1      47.408  78.002  42.298  0.00  0.00    +0.229 C 
ATOM      8  O   UNL     1      48.240  78.159  43.232  0.00  0.00    -0.275 OA
ATOM      9  N   UNL     1      46.030  77.879  42.602  0.00  0.00    -0.260 N 
BRANCH   9  10
ATOM     10  C   UNL     1      45.681  77.837  43.983  0.00  0.00    +0.054 A 
ATOM     11  C   UNL     1      46.267  76.923  44.846  0.00  0.00    +0.015 A 
ATOM     12  C   UNL     1      45.943  76.869  46.183  0.00  0.00    +0.001 A 
ATOM     13  C   UNL     1      45.015  77.724  46.733  0.00  0.00    +0.000 A 
ATOM     14  C   UNL     1      44.420  78.647  45.873  0.00  0.00    +0.001 A 
ATOM     15  C   UNL     1      44.753  78.693  44.536  0.00  0.00    +0.015 A 
ENDBRANCH   9  10
BRANCH   7  17
ATOM     16  C   UNL     1      49.372  77.460  40.889  0.00  0.00    +0.010 C 
ATOM     17  C   UNL     1      47.958  77.960  40.929  0.00  0.00    +0.086 C 
ENDBRANCH   7  17
ENDBRANCH   1   9
BRANCH   4  18
ATOM     18  C   UNL     1      42.336  77.545  38.541  0.00  0.00    +0.077 C 
BRANCH  18  19
ATOM     19  C   UNL     1      41.062  76.832  38.881  0.00  0.00    +0.044 C 
BRANCH  19  20
ATOM     20  C   UNL     1      40.383  76.503  37.581  0.00  0.00    -0.021 A 
ATOM     21  C   UNL     1      39.080  76.859  37.393  0.00  0.00    -0.004 A 
ATOM     22  C   UNL     1      38.463  76.553  36.200  0.00  0.00    -0.000 A 
ATOM     23  C   UNL     1      39.150  75.886  35.182  0.00  0.00    -0.000 A 
ATOM     24  C   UNL     1      40.456  75.530  35.373  0.00  0.00    -0.000 A 
ATOM     25  C   UNL     1      41.065  75.843  36.576  0.00  0.00    -0.004 A 
ENDBRANCH  19  20
ENDBRANCH  18  19
ENDBRANCH   4  18
TORSDOF 6
REMARK  Name = Fentanyl/droperidol
REMARK  17 active torsions:
REMARK  status: ('A' for Active; 'I' for Inactive)
REMARK    1  A    between atoms: C_2  and  C_3
REMARK    2  A    between atoms: N_5  and  C_6
REMARK    3  A    between atoms: N_5  and  C_20
REMARK    4  A    between atoms: N_9  and  C_12
REMARK    5  A    between atoms: C_12  and  C_13
REMARK    6  A    between atoms: C_13  and  C_14
REMARK    7  A    between atoms: N_28  and  C_42
REMARK    8  A    between atoms: C_31  and  N_32
REMARK    9  A    between atoms: C_42  and  C_43
REMARK   10  A    between atoms: C_43  and  C_44
REMARK   11  A    between atoms: C_44  and  C_45
REMARK   12  A    between atoms: C_45  and  C_47
REMARK   13  A    between atoms: C_54  and  C_55
REMARK   14  A    between atoms: C_54  and  C_58
REMARK   15  A    between atoms: C_58  and  C_59
REMARK   16  A    between atoms: C_58  and  C_63
REMARK   17  A    between atoms: C_59  and  C_60
REMARK                            x       y       z     vdW  Elec       q    Type
REMARK                         _______ _______ _______ _____ _____    ______ ____
ROOT
ATOM      1  C   UNL     1      42.719  77.450  40.471  0.00  0.00    +0.061 C 
ATOM      2  C   UNL     1      44.101  77.013  39.964  0.00  0.00    +0.079 C 
ATOM      3  N   UNL     1      44.941  78.181  39.786  0.00  0.00    -0.269 NA
ATOM      4  C   UNL     1      44.239  79.409  39.820  0.00  0.00    +0.100 C 
ATOM      5  C   UNL     1      42.984  79.273  39.004  0.00  0.00    +0.004 C 
ATOM      6  C   UNL     1      42.189  78.280  39.322  0.00  0.00    +0.044 C 
ENDROOT
BRANCH   6   7
ATOM      7  N   UNL     1      40.928  78.011  38.754  0.00  0.00    -0.261 N 
ATOM      8  C   UNL     1      39.962  77.152  39.158  0.00  0.00    +0.086 A 
ATOM      9  C   UNL     1      39.891  76.189  40.145  0.00  0.00    +0.019 A 
ATOM     10  C   UNL     1      38.749  75.422  40.321  0.00  0.00    +0.002 A 
ATOM     11  C   UNL     1      37.665  75.622  39.495  0.00  0.00    +0.002 A 
ATOM     12  C   UNL     1      37.712  76.575  38.502  0.00  0.00    +0.021 A 
ATOM     13  C   UNL     1      38.861  77.340  38.332  0.00  0.00    +0.102 A 
ATOM     14  N   UNL     1      39.149  78.293  37.441  0.00  0.00    -0.191 NA
ATOM     15  C   UNL     1      40.389  78.693  37.696  0.00  0.00    +0.354 A 
ATOM     16  O   UNL     1      40.949  79.586  37.025  0.00  0.00    -0.244 OA
ENDBRANCH   6   7
BRANCH   3  17
ATOM     17  C   UNL     1      46.116  78.105  40.635  0.00  0.00    +0.073 C 
BRANCH  17  18
ATOM     18  C   UNL     1      47.284  78.690  39.930  0.00  0.00    +0.025 C 
BRANCH  18  19
ATOM     19  C   UNL     1      48.125  79.628  40.736  0.00  0.00    +0.071 C 
BRANCH  19  20
ATOM     20  C   UNL     1      47.757  81.039  40.635  0.00  0.00    +0.173 C 
ATOM     21  O   UNL     1      47.038  81.489  39.721  0.00  0.00    -0.291 OA
BRANCH  20  22
ATOM     22  C   UNL     1      48.242  81.963  41.635  0.00  0.00    +0.035 A 
ATOM     23  C   UNL     1      48.468  83.284  41.326  0.00  0.00    +0.005 A 
ATOM     24  C   UNL     1      48.929  84.202  42.243  0.00  0.00    +0.030 A 
ATOM     25  C   UNL     1      49.176  83.781  43.537  0.00  0.00    +0.140 A 
ATOM     26  C   UNL     1      48.949  82.458  43.846  0.00  0.00    +0.030 A 
ATOM     27  C   UNL     1      48.487  81.558  42.906  0.00  0.00    +0.005 A 
ATOM     28  F   UNL     1      49.635  84.648  44.493  0.00  0.00    -0.204 F 
ENDBRANCH  20  22
ENDBRANCH  19  20
ENDBRANCH  18  19
ENDBRANCH  17  18
ENDBRANCH   3  17
TORSDOF 6
REMARK  Name = Fentanyl/droperidol
REMARK  17 active torsions:
REMARK  status: ('A' for Active; 'I' for Inactive)
REMARK    1  A    between atoms: C_2  and  C_3
REMARK    2  A    between atoms: N_5  and  C_6
REMARK    3  A    between atoms: N_5  and  C_20
REMARK    4  A    between atoms: N_9  and  C_12
REMARK    5  A    between atoms: C_12  and  C_13
REMARK    6  A    between atoms: C_13  and  C_14
REMARK    7  A    between atoms: N_28  and  C_42
REMARK    8  A    between atoms: C_31  and  N_32
REMARK    9  A    between atoms: C_42  and  C_43
REMARK   10  A    between atoms: C_43  and  C_44
REMARK   11  A    between atoms: C_44  and  C_45
REMARK   12  A    between atoms: C_45  and  C_47
REMARK   13  A    between atoms: C_54  and  C_55
REMARK   14  A    between atoms: C_54  and  C_58
REMARK   15  A    between atoms: C_58  and  C_59
REMARK   16  A    between atoms: C_58  and  C_63
REMARK   17  A    between atoms: C_59  and  C_60
REMARK                            x       y       z     vdW  Elec       q    Type
REMARK                         _______ _______ _______ _____ _____    ______ ____
ROOT
ATOM      1  C   UNL     1      44.834  78.317  41.065  0.00  0.00    +0.240 C 
ATOM      2  O   UNL     1      44.864  78.484  42.470  0.00  0.00    -0.213 OA
ENDROOT
BRANCH   1   3
ATOM      3  C   UNL     1      45.576  79.445  40.483  0.00  0.00    +0.393 C 
ATOM      4  O   UNL     1      45.491  80.578  41.013  0.00  0.00    -0.243 OA
ATOM      5  O   UNL     1      46.366  79.291  39.364  0.00  0.00    -0.243 OA
ENDBRANCH   1   3
BRANCH   1   6
ATOM      6  C   UNL     1      43.387  78.307  40.698  0.00  0.00    +0.156 C 
BRANCH   6   7
ATOM      7  C   UNL     1      42.836  77.000  40.356  0.00  0.00    +0.368 C 
ATOM      8  O   UNL     1      42.897  75.956  41.041  0.00  0.00    -0.246 OA
ATOM      9  O   UNL     1      42.163  76.883  39.134  0.00  0.00    -0.246 OA
ENDBRANCH   6   7
ENDBRANCH   1   6
BRANCH   1  10
ATOM     10  C   UNL     1      45.529  77.004  40.804  0.00  0.00    +0.156 C 
BRANCH  10  11
ATOM     11  C   UNL     1      46.416  76.622  41.930  0.00  0.00    +0.368 C 
ATOM     12  O   UNL     1      46.906  75.468  42.059  0.00  0.00    -0.246 OA
ATOM     13  O   UNL     1      46.739  77.580  42.910  0.00  0.00    -0.246 OA
ENDBRANCH  10  11
ENDBRANCH   1  10
TORSDOF 5
