REMARK  Name = Fesoterodine_fumarate
REMARK  13 active torsions:
REMARK  status: ('A' for Active; 'I' for Inactive)
REMARK    1  A    between atoms: C_2  and  C_4
REMARK    2  A    between atoms: C_4  and  O_6
REMARK    3  A    between atoms: O_6  and  C_7
REMARK    4  A    between atoms: C_8  and  C_15
REMARK    5  A    between atoms: C_10  and  C_13
REMARK    6  A    between atoms: C_15  and  C_16
REMARK    7  A    between atoms: C_15  and  C_25
REMARK    8  A    between atoms: C_16  and  C_17
REMARK    9  A    between atoms: C_17  and  N_18
REMARK   10  A    between atoms: N_18  and  C_19
REMARK   11  A    between atoms: N_18  and  C_22
REMARK   12  A    between atoms: C_31  and  C_36
REMARK   13  A    between atoms: C_32  and  C_33
REMARK                            x       y       z     vdW  Elec       q    Type
REMARK                         _______ _______ _______ _____ _____    ______ ____
ROOT
ATOM      1  C   UNL     1      48.313  81.671  42.414  0.00  0.00    +0.049 C 
ENDROOT
BRANCH   1   3
ATOM      2  C   UNL     1      50.520  81.284  43.410  0.00  0.00    +0.145 A 
ATOM      3  C   UNL     1      49.770  81.744  42.348  0.00  0.00    +0.016 A 
ATOM      4  C   UNL     1      50.446  82.266  41.264  0.00  0.00    -0.003 A 
ATOM      5  C   UNL     1      51.844  82.329  41.240  0.00  0.00    +0.010 A 
ATOM      6  C   UNL     1      52.581  81.869  42.302  0.00  0.00    +0.001 A 
ATOM      7  C   UNL     1      51.901  81.344  43.390  0.00  0.00    +0.037 A 
BRANCH   5   8
ATOM      8  C   UNL     1      52.559  82.890  40.072  0.00  0.00    +0.209 C 
ATOM      9  O   UNL     1      53.803  83.379  40.487  0.00  0.00    -0.215 OA
ENDBRANCH   5   8
BRANCH   2  10
ATOM     10  O   UNL     1      49.839  80.758  44.499  0.00  0.00    -0.424 OA
BRANCH  10  11
ATOM     11  C   UNL     1      50.159  81.152  45.799  0.00  0.00    +0.321 C 
ATOM     12  O   UNL     1      50.989  82.091  45.897  0.00  0.00    -0.250 OA
BRANCH  11  14
ATOM     13  C   UNL     1      49.468  79.040  46.895  0.00  0.00    +0.012 C 
ATOM     14  C   UNL     1      49.598  80.550  47.006  0.00  0.00    +0.099 C 
ATOM     15  C   UNL     1      50.315  80.915  48.282  0.00  0.00    +0.012 C 
ENDBRANCH  11  14
ENDBRANCH  10  11
ENDBRANCH   2  10
ENDBRANCH   1   3
BRANCH   1  16
ATOM     16  C   UNL     1      47.725  82.990  42.072  0.00  0.00    -0.018 A 
ATOM     17  C   UNL     1      47.661  83.375  40.728  0.00  0.00    -0.004 A 
ATOM     18  C   UNL     1      47.124  84.584  40.338  0.00  0.00    -0.000 A 
ATOM     19  C   UNL     1      46.630  85.459  41.273  0.00  0.00    -0.000 A 
ATOM     20  C   UNL     1      46.685  85.099  42.602  0.00  0.00    -0.000 A 
ATOM     21  C   UNL     1      47.224  83.887  42.976  0.00  0.00    -0.004 A 
ENDBRANCH   1  16
BRANCH   1  22
ATOM     22  C   UNL     1      47.698  80.594  41.538  0.00  0.00    +0.026 C 
BRANCH  22  23
ATOM     23  C   UNL     1      46.207  80.664  41.745  0.00  0.00    +0.073 C 
BRANCH  23  24
ATOM     24  N   UNL     1      45.459  79.597  41.120  0.00  0.00    -0.275 NA
BRANCH  24  25
ATOM     25  C   UNL     1      45.435  78.451  41.945  0.00  0.00    +0.058 C 
ATOM     26  C   UNL     1      44.419  77.403  41.533  0.00  0.00    +0.017 C 
ATOM     27  C   UNL     1      45.359  78.744  43.442  0.00  0.00    +0.017 C 
ENDBRANCH  24  25
BRANCH  24  28
ATOM     28  C   UNL     1      45.985  79.457  39.795  0.00  0.00    +0.058 C 
ATOM     29  C   UNL     1      46.661  78.186  39.458  0.00  0.00    +0.017 C 
ATOM     30  C   UNL     1      44.842  79.647  38.816  0.00  0.00    +0.017 C 
ENDBRANCH  24  28
ENDBRANCH  23  24
ENDBRANCH  22  23
ENDBRANCH   1  22
TORSDOF 11
REMARK  Name = Fesoterodine_fumarate
REMARK  13 active torsions:
REMARK  status: ('A' for Active; 'I' for Inactive)
REMARK    1  A    between atoms: C_2  and  C_4
REMARK    2  A    between atoms: C_4  and  O_6
REMARK    3  A    between atoms: O_6  and  C_7
REMARK    4  A    between atoms: C_8  and  C_15
REMARK    5  A    between atoms: C_10  and  C_13
REMARK    6  A    between atoms: C_15  and  C_16
REMARK    7  A    between atoms: C_15  and  C_25
REMARK    8  A    between atoms: C_16  and  C_17
REMARK    9  A    between atoms: C_17  and  N_18
REMARK   10  A    between atoms: N_18  and  C_19
REMARK   11  A    between atoms: N_18  and  C_22
REMARK   12  A    between atoms: C_31  and  C_36
REMARK   13  A    between atoms: C_32  and  C_33
REMARK                            x       y       z     vdW  Elec       q    Type
REMARK                         _______ _______ _______ _____ _____    ______ ____
ROOT
ATOM      1  C   UNL     1      47.559  81.697  41.353  0.00  0.00    +0.093 C 
ATOM      2  C   UNL     1      48.556  81.805  42.139  0.00  0.00    +0.093 C 
ENDROOT
BRANCH   2   3
ATOM      3  C   UNL     1      48.914  81.017  43.273  0.00  0.00    +0.388 C 
ATOM      4  O   UNL     1      49.307  79.780  43.111  0.00  0.00    -0.241 OA
ATOM      5  O   UNL     1      48.887  81.450  44.583  0.00  0.00    -0.241 OA
ENDBRANCH   2   3
BRANCH   1   6
ATOM      6  C   UNL     1      47.262  82.477  40.186  0.00  0.00    +0.388 C 
ATOM      7  O   UNL     1      46.352  82.282  39.342  0.00  0.00    -0.241 OA
ATOM      8  O   UNL     1      48.039  83.633  39.860  0.00  0.00    -0.241 OA
ENDBRANCH   1   6
TORSDOF 2
