REMARK  Name = Fexinidazole
REMARK  5 active torsions:
REMARK  status: ('A' for Active; 'I' for Inactive)
REMARK    1  A    between atoms: C_3  and  N_17
REMARK    2  A    between atoms: C_6  and  C_7
REMARK    3  A    between atoms: C_7  and  O_8
REMARK    4  A    between atoms: O_8  and  C_9
REMARK    5  A    between atoms: C_12  and  S_15
REMARK                            x       y       z     vdW  Elec       q    Type
REMARK                         _______ _______ _______ _____ _____    ______ ____
ROOT
ATOM      1  C   UNL     1      46.370  82.559  39.923  0.00  0.00    +0.268 C 
ENDROOT
BRANCH   1   7
ATOM      2  C   UNL     1      45.325  80.077  41.191  0.00  0.00    +0.133 C 
ATOM      3  N   UNL     1      45.042  80.434  39.839  0.00  0.00    -0.291 N 
ATOM      4  C   UNL     1      44.304  79.729  38.988  0.00  0.00    +0.226 A 
ATOM      5  C   UNL     1      44.293  80.426  37.819  0.00  0.00    +0.142 A 
ATOM      6  N   UNL     1      45.022  81.535  37.984  0.00  0.00    -0.224 NA
ATOM      7  C   UNL     1      45.503  81.568  39.234  0.00  0.00    +0.166 A 
BRANCH   4   8
ATOM      8  N   UNL     1      43.639  78.490  39.209  0.00  0.00    +0.076 N 
ATOM      9  O   UNL     1      43.795  77.864  40.279  0.00  0.00    -0.125 OA
ATOM     10  O   UNL     1      42.801  77.908  38.290  0.00  0.00    -0.125 OA
ENDBRANCH   4   8
ENDBRANCH   1   7
BRANCH   1  11
ATOM     11  O   UNL     1      47.365  82.042  40.695  0.00  0.00    -0.467 OA
BRANCH  11  12
ATOM     12  C   UNL     1      48.398  82.559  41.395  0.00  0.00    +0.139 A 
ATOM     13  C   UNL     1      48.127  83.547  42.323  0.00  0.00    +0.037 A 
ATOM     14  C   UNL     1      49.113  84.135  43.087  0.00  0.00    +0.009 A 
ATOM     15  C   UNL     1      50.414  83.738  42.933  0.00  0.00    +0.025 A 
ATOM     16  C   UNL     1      50.713  82.762  42.022  0.00  0.00    +0.009 A 
ATOM     17  C   UNL     1      49.702  82.170  41.250  0.00  0.00    +0.037 A 
BRANCH  15  18
ATOM     18  S   UNL     1      51.680  84.497  43.917  0.00  0.00    -0.113 S 
ATOM     19  C   UNL     1      50.951  85.916  44.785  0.00  0.00    +0.074 C 
ENDBRANCH  15  18
ENDBRANCH  11  12
ENDBRANCH   1  11
TORSDOF 5
