REMARK  Name = Fexofenadine
REMARK  10 active torsions:
REMARK  status: ('A' for Active; 'I' for Inactive)
REMARK    1  A    between atoms: C_2  and  C_4
REMARK    2  A    between atoms: C_2  and  C_35
REMARK    3  A    between atoms: C_7  and  C_10
REMARK    4  A    between atoms: C_10  and  C_11
REMARK    5  A    between atoms: C_11  and  C_12
REMARK    6  A    between atoms: C_12  and  C_13
REMARK    7  A    between atoms: C_13  and  N_14
REMARK    8  A    between atoms: C_17  and  C_20
REMARK    9  A    between atoms: C_20  and  C_21
REMARK   10  A    between atoms: C_20  and  C_27
REMARK                            x       y       z     vdW  Elec       q    Type
REMARK                         _______ _______ _______ _____ _____    ______ ____
ROOT
ATOM      1  N   UNL     1      42.709  78.170  38.642  0.00  0.00    -0.273 NA
ATOM      2  C   UNL     1      41.860  78.481  37.514  0.00  0.00    +0.072 C 
ATOM      3  C   UNL     1      40.715  77.487  37.383  0.00  0.00    +0.020 C 
ATOM      4  C   UNL     1      40.602  76.779  38.723  0.00  0.00    +0.039 C 
ATOM      5  C   UNL     1      40.603  77.856  39.748  0.00  0.00    +0.020 C 
ATOM      6  C   UNL     1      42.069  78.299  39.902  0.00  0.00    +0.072 C 
ENDROOT
BRANCH   4   7
ATOM      7  C   UNL     1      39.464  75.820  38.752  0.00  0.00    +0.164 C 
ATOM      8  O   UNL     1      39.775  74.822  37.770  0.00  0.00    -0.217 OA
BRANCH   7   9
ATOM      9  C   UNL     1      38.178  76.437  38.353  0.00  0.00    +0.009 A 
ATOM     10  C   UNL     1      37.520  76.081  37.203  0.00  0.00    -0.002 A 
ATOM     11  C   UNL     1      36.308  76.669  36.853  0.00  0.00    -0.000 A 
ATOM     12  C   UNL     1      35.736  77.624  37.649  0.00  0.00    -0.000 A 
ATOM     13  C   UNL     1      36.382  77.997  38.811  0.00  0.00    -0.000 A 
ATOM     14  C   UNL     1      37.579  77.410  39.149  0.00  0.00    -0.002 A 
ENDBRANCH   7   9
BRANCH   7  15
ATOM     15  C   UNL     1      39.298  75.062  39.998  0.00  0.00    +0.009 A 
ATOM     16  C   UNL     1      40.392  74.376  40.474  0.00  0.00    -0.002 A 
ATOM     17  C   UNL     1      40.382  73.633  41.635  0.00  0.00    -0.000 A 
ATOM     18  C   UNL     1      39.212  73.576  42.355  0.00  0.00    -0.000 A 
ATOM     19  C   UNL     1      38.115  74.261  41.881  0.00  0.00    -0.000 A 
ATOM     20  C   UNL     1      38.137  75.000  40.720  0.00  0.00    -0.002 A 
ENDBRANCH   7  15
ENDBRANCH   4   7
BRANCH   1  21
ATOM     21  C   UNL     1      43.944  78.913  38.527  0.00  0.00    +0.072 C 
BRANCH  21  22
ATOM     22  C   UNL     1      43.850  80.297  39.066  0.00  0.00    +0.020 C 
BRANCH  22  23
ATOM     23  C   UNL     1      44.908  80.615  40.089  0.00  0.00    +0.039 C 
BRANCH  23  24
ATOM     24  C   UNL     1      46.144  81.076  39.410  0.00  0.00    +0.174 C 
ATOM     25  O   UNL     1      45.819  82.152  38.583  0.00  0.00    -0.218 OA
BRANCH  24  29
ATOM     26  C   UNL     1      49.263  82.486  41.943  0.00  0.00    -0.013 A 
ATOM     27  C   UNL     1      48.145  81.938  42.509  0.00  0.00    -0.004 A 
ATOM     28  C   UNL     1      47.105  81.466  41.703  0.00  0.00    -0.002 A 
ATOM     29  C   UNL     1      47.193  81.547  40.350  0.00  0.00    +0.008 A 
ATOM     30  C   UNL     1      48.326  82.102  39.788  0.00  0.00    -0.002 A 
ATOM     31  C   UNL     1      49.354  82.568  40.575  0.00  0.00    -0.004 A 
BRANCH  26  33
ATOM     32  C   UNL     1      50.137  84.429  43.173  0.00  0.00    +0.016 C 
ATOM     33  C   UNL     1      50.374  82.989  42.765  0.00  0.00    +0.113 C 
ATOM     34  C   UNL     1      50.437  82.149  44.021  0.00  0.00    +0.016 C 
BRANCH  33  35
ATOM     35  C   UNL     1      51.627  82.940  41.992  0.00  0.00    +0.368 C 
ATOM     36  O   UNL     1      52.555  82.135  42.145  0.00  0.00    -0.245 OA
ATOM     37  O   UNL     1      51.796  83.899  40.974  0.00  0.00    -0.245 OA
ENDBRANCH  33  35
ENDBRANCH  26  33
ENDBRANCH  24  29
ENDBRANCH  23  24
ENDBRANCH  22  23
ENDBRANCH  21  22
ENDBRANCH   1  21
TORSDOF 10
