REMARK  Name = Fezolinetant
REMARK  2 active torsions:
REMARK  status: ('A' for Active; 'I' for Inactive)
REMARK    1  A    between atoms: C_6  and  C_20
REMARK    2  A    between atoms: C_11  and  C_13
REMARK                            x       y       z     vdW  Elec       q    Type
REMARK                         _______ _______ _______ _____ _____    ______ ____
ROOT
ATOM      1  C   UNL     1      48.890  81.829  39.352  0.00  0.00    +0.030 C 
ATOM      2  C   UNL     1      47.700  82.130  40.242  0.00  0.00    +0.134 C 
ATOM      3  C   UNL     1      46.420  81.801  39.567  0.00  0.00    +0.161 A 
ATOM      4  N   UNL     1      45.600  82.494  38.726  0.00  0.00    -0.132 NA
ATOM      5  N   UNL     1      44.564  81.718  38.405  0.00  0.00    -0.127 NA
ATOM      6  C   UNL     1      44.696  80.539  39.019  0.00  0.00    +0.192 A 
ATOM      7  N   UNL     1      45.815  80.587  39.721  0.00  0.00    -0.294 N 
ATOM      8  C   UNL     1      46.488  79.628  40.592  0.00  0.00    +0.130 C 
ATOM      9  C   UNL     1      46.843  80.435  41.856  0.00  0.00    +0.119 C 
ATOM     10  N   UNL     1      47.862  81.418  41.487  0.00  0.00    -0.269 N 
ATOM     11  C   UNL     1      48.971  81.670  42.311  0.00  0.00    +0.249 C 
ATOM     12  O   UNL     1      49.683  80.703  42.682  0.00  0.00    -0.270 OA
ENDROOT
BRANCH  11  13
ATOM     13  C   UNL     1      49.321  83.008  42.747  0.00  0.00    +0.054 A 
ATOM     14  C   UNL     1      50.617  83.489  42.800  0.00  0.00    +0.007 A 
ATOM     15  C   UNL     1      50.901  84.759  43.225  0.00  0.00    +0.030 A 
ATOM     16  C   UNL     1      49.911  85.625  43.621  0.00  0.00    +0.140 A 
ATOM     17  C   UNL     1      48.617  85.182  43.580  0.00  0.00    +0.030 A 
ATOM     18  C   UNL     1      48.330  83.906  43.154  0.00  0.00    +0.007 A 
ATOM     19  F   UNL     1      50.162  86.898  44.050  0.00  0.00    -0.204 F 
ENDBRANCH  11  13
BRANCH   6  20
ATOM     20  C   UNL     1      43.776  79.386  38.939  0.00  0.00    +0.165 A 
ATOM     21  N   UNL     1      42.779  79.186  38.097  0.00  0.00    -0.219 NA
ATOM     22  C   UNL     1      42.075  78.101  38.184  0.00  0.00    +0.148 A 
ATOM     23  N   UNL     1      42.401  77.224  39.140  0.00  0.00    -0.193 NA
ATOM     24  S   UNL     1      43.707  77.974  39.893  0.00  0.00    +0.037 S 
ATOM     25  C   UNL     1      40.913  77.820  37.245  0.00  0.00    +0.074 C 
ENDBRANCH   6  20
TORSDOF 2
