REMARK  Name = Finafloxacin
REMARK  4 active torsions:
REMARK  status: ('A' for Active; 'I' for Inactive)
REMARK    1  A    between atoms: C_3  and  N_4
REMARK    2  A    between atoms: C_6  and  C_27
REMARK    3  A    between atoms: C_12  and  N_17
REMARK    4  A    between atoms: C_13  and  C_15
REMARK                            x       y       z     vdW  Elec       q    Type
REMARK                         _______ _______ _______ _____ _____    ______ ____
ROOT
ATOM      1  N   UNL     1      46.522  80.027  40.938  0.00  0.00    -0.327 N 
ATOM      2  C   UNL     1      47.200  81.085  40.476  0.00  0.00    +0.086 A 
ATOM      3  C   UNL     1      46.764  81.803  39.381  0.00  0.00    +0.136 A 
ATOM      4  C   UNL     1      45.612  81.446  38.730  0.00  0.00    +0.205 A 
ATOM      5  O   UNL     1      45.163  82.060  37.729  0.00  0.00    -0.286 OA
ATOM      6  C   UNL     1      44.901  80.350  39.200  0.00  0.00    +0.058 A 
ATOM      7  C   UNL     1      43.728  79.994  38.523  0.00  0.00    +0.036 A 
ATOM      8  C   UNL     1      43.023  78.899  38.985  0.00  0.00    +0.154 A 
ATOM      9  C   UNL     1      43.458  78.186  40.069  0.00  0.00    +0.087 A 
ATOM     10  C   UNL     1      44.646  78.586  40.715  0.00  0.00    +0.100 A 
ATOM     11  C   UNL     1      45.383  79.657  40.309  0.00  0.00    +0.074 A 
ATOM     12  F   UNL     1      41.888  78.514  38.367  0.00  0.00    -0.203 F 
ENDROOT
BRANCH   9  13
ATOM     13  N   UNL     1      42.754  77.072  40.565  0.00  0.00    -0.301 N 
ATOM     14  C   UNL     1      41.826  76.313  39.709  0.00  0.00    +0.111 C 
ATOM     15  C   UNL     1      41.888  74.956  40.320  0.00  0.00    +0.121 C 
ATOM     16  C   UNL     1      41.885  75.272  41.805  0.00  0.00    +0.152 C 
ATOM     17  C   UNL     1      42.775  76.468  41.883  0.00  0.00    +0.122 C 
ATOM     18  O   UNL     1      42.371  74.138  42.444  0.00  0.00    -0.351 OA
ATOM     19  C   UNL     1      42.104  72.975  41.745  0.00  0.00    +0.161 C 
ATOM     20  C   UNL     1      40.821  73.004  40.967  0.00  0.00    +0.121 C 
ATOM     21  N   UNL     1      40.713  74.144  40.080  0.00  0.00    -0.213 NA
ENDBRANCH   9  13
BRANCH   1  24
ATOM     22  C   UNL     1      48.197  79.818  42.849  0.00  0.00    +0.024 C 
ATOM     23  C   UNL     1      48.426  78.710  41.932  0.00  0.00    +0.024 C 
ATOM     24  C   UNL     1      47.012  79.334  42.120  0.00  0.00    +0.086 C 
ENDBRANCH   1  24
BRANCH   3  25
ATOM     25  C   UNL     1      47.536  82.959  38.908  0.00  0.00    +0.392 C 
ATOM     26  O   UNL     1      47.219  83.618  37.912  0.00  0.00    -0.240 OA
ATOM     27  O   UNL     1      48.675  83.338  39.605  0.00  0.00    -0.240 OA
ENDBRANCH   3  25
BRANCH  10  28
ATOM     28  C   UNL     1      45.073  77.769  41.836  0.00  0.00    +0.103 C 
ATOM     29  N   UNL     1      45.442  77.104  42.745  0.00  0.00    -0.191 NA
ENDBRANCH  10  28
TORSDOF 4
