REMARK  Name = Finasteride
REMARK  2 active torsions:
REMARK  status: ('A' for Active; 'I' for Inactive)
REMARK    1  A    between atoms: C_10  and  C_11
REMARK    2  A    between atoms: N_13  and  C_14
REMARK                            x       y       z     vdW  Elec       q    Type
REMARK                         _______ _______ _______ _____ _____    ______ ____
ROOT
ATOM      1  C   UNL     1      48.805  83.307  40.507  0.00  0.00    +0.000 C 
ATOM      2  C   UNL     1      48.415  82.191  41.492  0.00  0.00    +0.008 C 
ATOM      3  C   UNL     1      48.842  80.911  40.871  0.00  0.00    +0.000 C 
ATOM      4  C   UNL     1      47.755  80.219  40.081  0.00  0.00    +0.000 C 
ATOM      5  C   UNL     1      46.614  80.020  40.997  0.00  0.00    +0.005 C 
ATOM      6  C   UNL     1      46.026  81.327  41.393  0.00  0.00    +0.000 C 
ATOM      7  C   UNL     1      47.016  82.339  41.884  0.00  0.00    +0.000 C 
ATOM      8  C   UNL     1      46.971  82.477  43.413  0.00  0.00    +0.001 C 
ATOM      9  C   UNL     1      48.363  82.742  43.853  0.00  0.00    +0.009 C 
ATOM     10  C   UNL     1      49.289  82.367  42.742  0.00  0.00    +0.078 C 
ATOM     11  C   UNL     1      45.049  81.890  40.389  0.00  0.00    +0.002 C 
ATOM     12  C   UNL     1      44.967  81.222  39.091  0.00  0.00    +0.022 C 
ATOM     13  C   UNL     1      45.257  79.762  39.028  0.00  0.00    +0.099 C 
ATOM     14  C   UNL     1      45.500  79.182  40.404  0.00  0.00    +0.037 C 
ATOM     15  C   UNL     1      44.230  79.288  41.165  0.00  0.00    -0.020 C 
ATOM     16  C   UNL     1      43.043  79.249  40.585  0.00  0.00    +0.055 C 
ATOM     17  C   UNL     1      42.916  79.099  39.129  0.00  0.00    +0.265 C 
ATOM     18  O   UNL     1      41.816  79.054  38.527  0.00  0.00    -0.268 OA
ATOM     19  N   UNL     1      44.166  79.003  38.431  0.00  0.00    -0.203 NA
ATOM     20  C   UNL     1      45.895  77.722  40.325  0.00  0.00    +0.006 C 
ENDROOT
BRANCH  10  21
ATOM     21  C   UNL     1      50.320  83.388  42.602  0.00  0.00    +0.241 C 
ATOM     22  O   UNL     1      49.976  84.599  42.596  0.00  0.00    -0.273 OA
ATOM     23  N   UNL     1      51.708  83.104  42.471  0.00  0.00    -0.209 NA
BRANCH  23  24
ATOM     24  C   UNL     1      52.614  84.163  42.147  0.00  0.00    +0.079 C 
ATOM     25  C   UNL     1      53.815  84.209  43.070  0.00  0.00    +0.022 C 
ATOM     26  C   UNL     1      51.941  85.526  42.262  0.00  0.00    +0.022 C 
ATOM     27  C   UNL     1      53.154  84.010  40.736  0.00  0.00    +0.022 C 
ENDBRANCH  23  24
ENDBRANCH  10  21
TORSDOF 2
