REMARK  Name = Finerenone
REMARK  6 active torsions:
REMARK  status: ('A' for Active; 'I' for Inactive)
REMARK    1  A    between atoms: C_2  and  O_3
REMARK    2  A    between atoms: O_3  and  C_4
REMARK    3  A    between atoms: C_10  and  C_18
REMARK    4  A    between atoms: C_11  and  C_15
REMARK    5  A    between atoms: C_19  and  O_26
REMARK    6  A    between atoms: C_21  and  C_24
REMARK                            x       y       z     vdW  Elec       q    Type
REMARK                         _______ _______ _______ _____ _____    ______ ____
ROOT
ATOM      1  C   UNL     1      47.443  78.756  42.466  0.00  0.00    +0.222 A 
ATOM      2  N   UNL     1      47.003  77.754  43.242  0.00  0.00    -0.211 NA
ATOM      3  C   UNL     1      45.775  77.228  43.111  0.00  0.00    +0.099 A 
ATOM      4  C   UNL     1      44.980  77.760  42.145  0.00  0.00    +0.012 A 
ATOM      5  C   UNL     1      45.408  78.810  41.316  0.00  0.00    +0.069 A 
ATOM      6  C   UNL     1      46.661  79.340  41.455  0.00  0.00    +0.054 A 
ATOM      7  C   UNL     1      47.145  80.413  40.628  0.00  0.00    +0.081 C 
ATOM      8  C   UNL     1      46.160  80.896  39.627  0.00  0.00    +0.054 C 
ATOM      9  C   UNL     1      44.974  80.375  39.519  0.00  0.00    +0.050 C 
ATOM     10  N   UNL     1      44.500  79.302  40.339  0.00  0.00    -0.217 NA
ATOM     11  C   UNL     1      44.002  80.900  38.482  0.00  0.00    +0.049 C 
ATOM     12  C   UNL     1      43.590  77.227  41.933  0.00  0.00    +0.034 C 
ENDROOT
BRANCH   7  13
ATOM     13  C   UNL     1      47.580  81.620  41.408  0.00  0.00    +0.020 A 
ATOM     14  C   UNL     1      48.865  82.081  41.329  0.00  0.00    +0.136 A 
ATOM     15  C   UNL     1      49.270  83.214  42.062  0.00  0.00    +0.047 A 
ATOM     16  C   UNL     1      48.371  83.874  42.873  0.00  0.00    +0.071 A 
ATOM     17  C   UNL     1      47.072  83.410  42.956  0.00  0.00    +0.010 A 
ATOM     18  C   UNL     1      46.685  82.298  42.232  0.00  0.00    +0.000 A 
BRANCH  16  19
ATOM     19  C   UNL     1      48.743  85.045  43.649  0.00  0.00    +0.101 C 
ATOM     20  N   UNL     1      49.026  85.980  44.261  0.00  0.00    -0.191 NA
ENDBRANCH  16  19
BRANCH  14  21
ATOM     21  O   UNL     1      49.788  81.460  40.541  0.00  0.00    -0.472 OA
ATOM     22  C   UNL     1      50.971  80.847  40.958  0.00  0.00    +0.252 C 
ENDBRANCH  14  21
ENDBRANCH   7  13
BRANCH   8  23
ATOM     23  C   UNL     1      46.607  82.021  38.748  0.00  0.00    +0.282 C 
ATOM     24  O   UNL     1      47.782  82.463  38.919  0.00  0.00    -0.267 OA
ATOM     25  N   UNL     1      45.859  82.641  37.751  0.00  0.00    -0.084 NA
ENDBRANCH   8  23
BRANCH   1  26
ATOM     26  O   UNL     1      48.725  79.252  42.657  0.00  0.00    -0.460 OA
BRANCH  26  28
ATOM     27  C   UNL     1      50.462  79.619  44.323  0.00  0.00    +0.051 C 
ATOM     28  C   UNL     1      49.074  79.951  43.831  0.00  0.00    +0.207 C 
ENDBRANCH  26  28
ENDBRANCH   1  26
TORSDOF 6
