REMARK  Name = Flavoxate
REMARK  6 active torsions:
REMARK  status: ('A' for Active; 'I' for Inactive)
REMARK    1  A    between atoms: C_3  and  C_24
REMARK    2  A    between atoms: C_12  and  C_13
REMARK    3  A    between atoms: C_13  and  O_15
REMARK    4  A    between atoms: O_15  and  C_16
REMARK    5  A    between atoms: C_16  and  C_17
REMARK    6  A    between atoms: C_17  and  N_18
REMARK                            x       y       z     vdW  Elec       q    Type
REMARK                         _______ _______ _______ _____ _____    ______ ____
ROOT
ATOM      1  C   UNL     1      47.387  83.350  39.205  0.00  0.00    +0.038 C 
ATOM      2  C   UNL     1      46.868  82.058  39.675  0.00  0.00    +0.052 A 
ATOM      3  C   UNL     1      47.268  81.432  40.803  0.00  0.00    +0.144 A 
ATOM      4  O   UNL     1      46.650  80.285  41.148  0.00  0.00    -0.453 OA
ATOM      5  C   UNL     1      45.692  79.743  40.459  0.00  0.00    +0.154 A 
ATOM      6  C   UNL     1      45.261  80.348  39.308  0.00  0.00    +0.073 A 
ATOM      7  C   UNL     1      45.832  81.514  38.886  0.00  0.00    +0.197 A 
ATOM      8  O   UNL     1      45.459  82.085  37.844  0.00  0.00    -0.287 OA
ATOM      9  C   UNL     1      44.238  79.777  38.565  0.00  0.00    +0.006 A 
ATOM     10  C   UNL     1      43.614  78.603  38.929  0.00  0.00    +0.001 A 
ATOM     11  C   UNL     1      44.064  78.013  40.088  0.00  0.00    +0.010 A 
ATOM     12  C   UNL     1      45.088  78.556  40.860  0.00  0.00    +0.110 A 
ENDROOT
BRANCH   3  13
ATOM     13  C   UNL     1      48.327  81.913  41.685  0.00  0.00    +0.034 A 
ATOM     14  C   UNL     1      49.567  81.385  41.863  0.00  0.00    +0.003 A 
ATOM     15  C   UNL     1      50.536  81.977  42.682  0.00  0.00    +0.000 A 
ATOM     16  C   UNL     1      50.211  83.131  43.327  0.00  0.00    +0.000 A 
ATOM     17  C   UNL     1      48.973  83.713  43.189  0.00  0.00    +0.000 A 
ATOM     18  C   UNL     1      48.059  83.115  42.388  0.00  0.00    +0.003 A 
ENDBRANCH   3  13
BRANCH  12  19
ATOM     19  C   UNL     1      45.512  77.868  42.069  0.00  0.00    +0.344 C 
ATOM     20  O   UNL     1      45.997  78.536  43.006  0.00  0.00    -0.245 OA
BRANCH  19  21
ATOM     21  O   UNL     1      45.394  76.512  42.206  0.00  0.00    -0.444 OA
BRANCH  21  22
ATOM     22  C   UNL     1      44.319  75.838  42.787  0.00  0.00    +0.226 C 
BRANCH  22  23
ATOM     23  C   UNL     1      43.688  74.822  41.852  0.00  0.00    +0.120 C 
BRANCH  23  24
ATOM     24  N   UNL     1      42.635  74.117  42.589  0.00  0.00    -0.270 NA
ATOM     25  C   UNL     1      43.066  72.758  42.737  0.00  0.00    +0.072 C 
ATOM     26  C   UNL     1      42.009  71.839  43.285  0.00  0.00    +0.017 C 
ATOM     27  C   UNL     1      40.646  72.489  43.328  0.00  0.00    +0.003 C 
ATOM     28  C   UNL     1      40.450  73.154  41.983  0.00  0.00    +0.017 C 
ATOM     29  C   UNL     1      41.410  74.288  41.870  0.00  0.00    +0.072 C 
ENDBRANCH  23  24
ENDBRANCH  22  23
ENDBRANCH  21  22
ENDBRANCH  19  21
ENDBRANCH  12  19
TORSDOF 6
