REMARK  Name = Fleroxacin
REMARK  4 active torsions:
REMARK  status: ('A' for Active; 'I' for Inactive)
REMARK    1  A    between atoms: N_5  and  C_8
REMARK    2  A    between atoms: N_15  and  C_23
REMARK    3  A    between atoms: C_17  and  C_20
REMARK    4  A    between atoms: C_23  and  C_24
REMARK                            x       y       z     vdW  Elec       q    Type
REMARK                         _______ _______ _______ _____ _____    ______ ____
ROOT
ATOM      1  C   UNL     1      42.542  77.903  38.819  0.00  0.00    +0.105 A 
ATOM      2  C   UNL     1      42.416  78.930  37.928  0.00  0.00    +0.156 A 
ATOM      3  C   UNL     1      43.287  79.982  37.974  0.00  0.00    +0.036 A 
ATOM      4  C   UNL     1      44.291  80.006  38.916  0.00  0.00    +0.060 A 
ATOM      5  C   UNL     1      44.418  78.948  39.830  0.00  0.00    +0.092 A 
ATOM      6  C   UNL     1      43.545  77.886  39.791  0.00  0.00    +0.171 A 
ATOM      7  F   UNL     1      43.613  76.843  40.640  0.00  0.00    -0.201 F 
ATOM      8  N   UNL     1      45.388  78.990  40.727  0.00  0.00    -0.321 N 
ATOM      9  C   UNL     1      46.226  80.071  40.720  0.00  0.00    +0.086 A 
ATOM     10  C   UNL     1      46.134  81.117  39.849  0.00  0.00    +0.136 A 
ATOM     11  C   UNL     1      45.134  81.094  38.908  0.00  0.00    +0.205 A 
ATOM     12  O   UNL     1      45.045  82.052  38.105  0.00  0.00    -0.286 OA
ATOM     13  F   UNL     1      41.411  78.863  37.018  0.00  0.00    -0.203 F 
ENDROOT
BRANCH   1  18
ATOM     14  C   UNL     1      39.281  73.410  38.478  0.00  0.00    +0.090 C 
ATOM     15  N   UNL     1      40.376  74.358  38.521  0.00  0.00    -0.269 NA
ATOM     16  C   UNL     1      40.056  75.443  37.630  0.00  0.00    +0.094 C 
ATOM     17  C   UNL     1      41.258  76.323  37.461  0.00  0.00    +0.108 C 
ATOM     18  N   UNL     1      41.637  76.796  38.783  0.00  0.00    -0.301 N 
ATOM     19  C   UNL     1      41.138  76.196  39.975  0.00  0.00    +0.108 C 
ATOM     20  C   UNL     1      40.745  74.759  39.835  0.00  0.00    +0.094 C 
ENDBRANCH   1  18
BRANCH  10  21
ATOM     21  C   UNL     1      47.082  82.229  39.923  0.00  0.00    +0.392 C 
ATOM     22  O   UNL     1      47.086  83.103  39.032  0.00  0.00    -0.240 OA
ATOM     23  O   UNL     1      47.968  82.308  40.977  0.00  0.00    -0.240 OA
ENDBRANCH  10  21
BRANCH   8  24
ATOM     24  C   UNL     1      45.622  77.957  41.719  0.00  0.00    +0.144 C 
BRANCH  24  25
ATOM     25  C   UNL     1      46.960  77.312  41.456  0.00  0.00    +0.218 C 
ATOM     26  F   UNL     1      46.755  76.305  40.507  0.00  0.00    -0.232 F 
ENDBRANCH  24  25
ENDBRANCH   8  24
TORSDOF 4
