REMARK  Name = Flibanserin
REMARK  5 active torsions:
REMARK  status: ('A' for Active; 'I' for Inactive)
REMARK    1  A    between atoms: N_3  and  C_19
REMARK    2  A    between atoms: N_6  and  C_7
REMARK    3  A    between atoms: C_7  and  C_8
REMARK    4  A    between atoms: C_8  and  N_9
REMARK    5  A    between atoms: C_23  and  C_25
REMARK                            x       y       z     vdW  Elec       q    Type
REMARK                         _______ _______ _______ _____ _____    ______ ____
ROOT
ATOM      1  C   UNL     1      46.500  79.784  40.960  0.00  0.00    +0.094 C 
ATOM      2  C   UNL     1      47.935  80.171  40.559  0.00  0.00    +0.108 C 
ATOM      3  N   UNL     1      47.971  81.605  40.489  0.00  0.00    -0.305 N 
ATOM      4  C   UNL     1      47.060  82.276  39.588  0.00  0.00    +0.108 C 
ATOM      5  C   UNL     1      45.667  81.746  39.795  0.00  0.00    +0.094 C 
ATOM      6  N   UNL     1      45.611  80.355  40.034  0.00  0.00    -0.268 NA
ENDROOT
BRANCH   3   7
ATOM      7  C   UNL     1      48.852  82.356  41.279  0.00  0.00    +0.048 A 
ATOM      8  C   UNL     1      50.212  82.079  41.250  0.00  0.00    +0.015 A 
ATOM      9  C   UNL     1      51.098  82.829  42.017  0.00  0.00    +0.001 A 
ATOM     10  C   UNL     1      50.569  83.839  42.791  0.00  0.00    +0.004 A 
ATOM     11  C   UNL     1      49.242  84.119  42.827  0.00  0.00    +0.073 A 
ATOM     12  C   UNL     1      48.365  83.373  42.065  0.00  0.00    +0.018 A 
BRANCH  11  13
ATOM     13  C   UNL     1      48.657  85.213  43.665  0.00  0.00    +0.419 C 
ATOM     14  F   UNL     1      48.467  84.706  44.934  0.00  0.00    -0.166 F 
ATOM     15  F   UNL     1      47.489  85.623  43.074  0.00  0.00    -0.166 F 
ATOM     16  F   UNL     1      49.555  86.282  43.671  0.00  0.00    -0.166 F 
ENDBRANCH  11  13
ENDBRANCH   3   7
BRANCH   6  17
ATOM     17  C   UNL     1      44.359  79.741  39.798  0.00  0.00    +0.097 C 
BRANCH  17  18
ATOM     18  C   UNL     1      44.549  78.315  39.350  0.00  0.00    +0.128 C 
BRANCH  18  19
ATOM     19  N   UNL     1      43.410  77.486  39.709  0.00  0.00    -0.277 N 
ATOM     20  C   UNL     1      42.261  77.447  39.019  0.00  0.00    +0.082 A 
ATOM     21  C   UNL     1      41.801  78.092  37.870  0.00  0.00    +0.019 A 
ATOM     22  C   UNL     1      40.536  77.839  37.386  0.00  0.00    +0.002 A 
ATOM     23  C   UNL     1      39.678  76.953  38.001  0.00  0.00    +0.002 A 
ATOM     24  C   UNL     1      40.119  76.310  39.136  0.00  0.00    +0.021 A 
ATOM     25  C   UNL     1      41.401  76.563  39.630  0.00  0.00    +0.102 A 
ATOM     26  N   UNL     1      42.058  76.076  40.698  0.00  0.00    -0.191 NA
ATOM     27  C   UNL     1      43.277  76.641  40.739  0.00  0.00    +0.350 A 
ATOM     28  O   UNL     1      44.163  76.406  41.621  0.00  0.00    -0.244 OA
ENDBRANCH  18  19
ENDBRANCH  17  18
ENDBRANCH   6  17
TORSDOF 5
