REMARK  Name = Florbetapir_F-18
REMARK  12 active torsions:
REMARK  status: ('A' for Active; 'I' for Inactive)
REMARK    1  A    between atoms: N_2  and  C_3
REMARK    2  A    between atoms: C_6  and  C_9
REMARK    3  A    between atoms: C_10  and  C_11
REMARK    4  A    between atoms: C_14  and  O_17
REMARK    5  A    between atoms: O_17  and  C_18
REMARK    6  A    between atoms: C_18  and  C_19
REMARK    7  A    between atoms: C_19  and  O_20
REMARK    8  A    between atoms: O_20  and  C_21
REMARK    9  A    between atoms: C_21  and  C_22
REMARK   10  A    between atoms: C_22  and  O_23
REMARK   11  A    between atoms: O_23  and  C_24
REMARK   12  A    between atoms: C_24  and  C_25
REMARK                            x       y       z     vdW  Elec       q    Type
REMARK                         _______ _______ _______ _____ _____    ______ ____
ROOT
ATOM      1  C   UNL     1      46.413  81.428  39.853  0.00  0.00    +0.019 A 
ATOM      2  C   UNL     1      45.670  81.873  38.786  0.00  0.00    +0.102 A 
ATOM      3  N   UNL     1      44.749  81.083  38.166  0.00  0.00    -0.210 NA
ATOM      4  C   UNL     1      44.480  79.828  38.521  0.00  0.00    +0.225 A 
ATOM      5  C   UNL     1      45.226  79.347  39.609  0.00  0.00    +0.058 A 
ATOM      6  C   UNL     1      46.153  80.106  40.252  0.00  0.00    +0.006 A 
ENDROOT
BRANCH   1   8
ATOM      7  C   UNL     1      48.292  81.640  41.345  0.00  0.00    +0.000 C 
ATOM      8  C   UNL     1      47.410  82.199  40.568  0.00  0.00    +0.002 C 
BRANCH   7  12
ATOM      9  C   UNL     1      50.848  83.860  43.970  0.00  0.00    +0.065 A 
ATOM     10  C   UNL     1      50.493  82.562  44.260  0.00  0.00    +0.016 A 
ATOM     11  C   UNL     1      49.659  81.823  43.413  0.00  0.00    +0.001 A 
ATOM     12  C   UNL     1      49.173  82.388  42.261  0.00  0.00    +0.000 A 
ATOM     13  C   UNL     1      49.519  83.680  41.960  0.00  0.00    +0.001 A 
ATOM     14  C   UNL     1      50.347  84.418  42.798  0.00  0.00    +0.016 A 
BRANCH   9  16
ATOM     15  C   UNL     1      51.815  86.016  44.661  0.00  0.00    +0.135 C 
ATOM     16  N   UNL     1      51.689  84.592  44.834  0.00  0.00    -0.236 NA
ENDBRANCH   9  16
ENDBRANCH   7  12
ENDBRANCH   1   8
BRANCH   4  17
ATOM     17  O   UNL     1      43.564  78.992  37.927  0.00  0.00    -0.457 OA
BRANCH  17  18
ATOM     18  C   UNL     1      42.212  78.985  38.269  0.00  0.00    +0.239 C 
BRANCH  18  19
ATOM     19  C   UNL     1      41.397  78.377  37.167  0.00  0.00    +0.189 C 
BRANCH  19  20
ATOM     20  O   UNL     1      40.611  77.364  37.657  0.00  0.00    -0.347 OA
BRANCH  20  21
ATOM     21  C   UNL     1      39.348  77.381  37.142  0.00  0.00    +0.174 C 
BRANCH  21  22
ATOM     22  C   UNL     1      38.762  75.989  37.147  0.00  0.00    +0.174 C 
BRANCH  22  23
ATOM     23  O   UNL     1      39.412  75.275  36.128  0.00  0.00    -0.348 OA
BRANCH  23  24
ATOM     24  C   UNL     1      38.840  73.985  36.047  0.00  0.00    +0.180 C 
BRANCH  24  25
ATOM     25  C   UNL     1      39.455  73.333  34.815  0.00  0.00    +0.225 C 
ATOM     26  F   UNL     1      38.454  72.844  34.011  0.00  0.00    -0.232 F 
ENDBRANCH  24  25
ENDBRANCH  23  24
ENDBRANCH  22  23
ENDBRANCH  21  22
ENDBRANCH  20  21
ENDBRANCH  19  20
ENDBRANCH  18  19
ENDBRANCH  17  18
ENDBRANCH   4  17
TORSDOF 12
