REMARK  Name = Floxuridine
REMARK  2 active torsions:
REMARK  status: ('A' for Active; 'I' for Inactive)
REMARK    1  A    between atoms: C4*_3  and  C5*_15
REMARK    2  A    between atoms: C1*_5  and  N_6
REMARK                            x       y       z     vdW  Elec       q    Type
REMARK                         _______ _______ _______ _____ _____    ______ ____
ROOT
ATOM      1  N   UNL     1      45.054  78.951  39.785  0.00  0.00    -0.253 N 
ATOM      2  C   UNL     1      45.959  79.754  40.368  0.00  0.00    +0.117 A 
ATOM      3  C   UNL     1      46.250  81.024  39.920  0.00  0.00    +0.215 A 
ATOM      4  C   UNL     1      45.582  81.498  38.822  0.00  0.00    +0.312 A 
ATOM      5  O   UNL     1      45.845  82.654  38.413  0.00  0.00    -0.263 OA
ATOM      6  N   UNL     1      44.676  80.697  38.237  0.00  0.00    -0.151 NA
ATOM      7  C   UNL     1      44.411  79.445  38.706  0.00  0.00    +0.355 A 
ATOM      8  O   UNL     1      43.563  78.699  38.156  0.00  0.00    -0.244 OA
ATOM      9  F   UNL     1      47.173  81.803  40.539  0.00  0.00    -0.197 F 
ENDROOT
BRANCH   1  14
ATOM     10  C2* UNL     1      43.821  77.678  41.488  0.00  0.00    +0.089 C 
ATOM     11  C3* UNL     1      44.049  76.282  42.039  0.00  0.00    +0.186 C 
ATOM     12  C4* UNL     1      45.515  76.086  41.754  0.00  0.00    +0.180 C 
ATOM     13  O4* UNL     1      45.940  77.120  40.965  0.00  0.00    -0.332 OA
ATOM     14  C1* UNL     1      44.837  77.655  40.339  0.00  0.00    +0.211 C 
ATOM     15  O3* UNL     1      43.739  76.188  43.377  0.00  0.00    -0.220 OA
BRANCH  12  16
ATOM     16  C5* UNL     1      46.225  76.062  43.107  0.00  0.00    +0.214 C 
ATOM     17  O5* UNL     1      47.233  77.007  43.142  0.00  0.00    -0.218 OA
ENDBRANCH  12  16
ENDBRANCH   1  14
TORSDOF 2
