REMARK  Name = Flucloxacillin
REMARK  4 active torsions:
REMARK  status: ('A' for Active; 'I' for Inactive)
REMARK    1  A    between atoms: C_3  and  C_15
REMARK    2  A    between atoms: C_4  and  C_7
REMARK    3  A    between atoms: N_17  and  CA_18
REMARK    4  A    between atoms: CA_23  and  C_28
REMARK                            x       y       z     vdW  Elec       q    Type
REMARK                         _______ _______ _______ _____ _____    ______ ____
ROOT
ATOM      1  C   UNL     1      48.075  82.318  41.681  0.00  0.00    +0.270 C 
ATOM      2  O   UNL     1      49.133  81.676  41.355  0.00  0.00    -0.268 OA
ATOM      3  N   UNL     1      46.882  81.882  41.112  0.00  0.00    -0.191 NA
ENDROOT
BRANCH   3   4
ATOM      4  CA  UNL     1      46.871  81.351  39.768  0.00  0.00    +0.200 C 
ATOM      5  C   UNL     1      46.604  79.882  39.639  0.00  0.00    +0.153 C 
ATOM      6  N   UNL     1      45.193  80.131  39.296  0.00  0.00    -0.259 N 
ATOM      7  C   UNL     1      45.574  81.474  39.050  0.00  0.00    +0.249 C 
ATOM      8  O   UNL     1      45.080  82.490  38.454  0.00  0.00    -0.273 OA
ATOM      9  CA  UNL     1      44.444  78.929  39.435  0.00  0.00    +0.189 C 
ATOM     10  C   UNL     1      44.618  78.417  40.842  0.00  0.00    +0.068 C 
ATOM     11  S   UNL     1      46.316  79.006  41.225  0.00  0.00    -0.118 S 
ATOM     12  C   UNL     1      43.616  78.925  41.807  0.00  0.00    +0.013 C 
ATOM     13  C   UNL     1      44.618  76.906  40.862  0.00  0.00    +0.013 C 
BRANCH   9  14
ATOM     14  C   UNL     1      43.054  79.122  39.037  0.00  0.00    +0.383 C 
ATOM     15  O   UNL     1      42.383  78.112  38.657  0.00  0.00    -0.244 OA
ATOM     16  OXT UNL     1      42.385  80.333  39.035  0.00  0.00    -0.244 OA
ENDBRANCH   9  14
ENDBRANCH   3   4
BRANCH   1  19
ATOM     17  C   UNL     1      45.818  84.394  42.733  0.00  0.00    +0.076 C 
ATOM     18  C   UNL     1      47.274  84.309  43.049  0.00  0.00    +0.159 A 
ATOM     19  C   UNL     1      48.228  83.425  42.600  0.00  0.00    +0.109 A 
ATOM     20  C   UNL     1      49.431  83.801  43.215  0.00  0.00    +0.130 A 
ATOM     21  N   UNL     1      49.154  84.850  43.973  0.00  0.00    -0.077 NA
ATOM     22  O   UNL     1      47.905  85.147  43.880  0.00  0.00    -0.358 OA
BRANCH  20  23
ATOM     23  C   UNL     1      50.690  83.135  43.019  0.00  0.00    +0.059 A 
ATOM     24  C   UNL     1      51.616  83.646  42.118  0.00  0.00    +0.142 A 
ATOM     25  C   UNL     1      52.830  83.059  41.888  0.00  0.00    +0.030 A 
ATOM     26  C   UNL     1      53.126  81.903  42.597  0.00  0.00    +0.003 A 
ATOM     27  C   UNL     1      52.214  81.386  43.494  0.00  0.00    +0.012 A 
ATOM     28  C   UNL     1      50.988  81.978  43.727  0.00  0.00    +0.061 A 
ATOM     29 CL   UNL     1      49.860  81.282  44.879  0.00  0.00    -0.082 Cl
ATOM     30  F   UNL     1      51.327  84.777  41.425  0.00  0.00    -0.204 F 
ENDBRANCH  20  23
ENDBRANCH   1  19
TORSDOF 4
