REMARK  Name = Fluconazole
REMARK  5 active torsions:
REMARK  status: ('A' for Active; 'I' for Inactive)
REMARK    1  A    between atoms: C_3  and  C_9
REMARK    2  A    between atoms: C_9  and  C_10
REMARK    3  A    between atoms: C_9  and  C_16
REMARK    4  A    between atoms: C_10  and  N_11
REMARK    5  A    between atoms: C_16  and  N_17
REMARK                            x       y       z     vdW  Elec       q    Type
REMARK                         _______ _______ _______ _____ _____    ______ ____
ROOT
ATOM      1  C   UNL     1      47.963  81.628  41.671  0.00  0.00    +0.192 C 
ATOM      2  O   UNL     1      46.770  81.097  42.220  0.00  0.00    -0.217 OA
ENDROOT
BRANCH   1   5
ATOM      3  C   UNL     1      49.491  84.975  42.379  0.00  0.00    +0.030 A 
ATOM      4  C   UNL     1      49.267  83.691  41.852  0.00  0.00    +0.003 A 
ATOM      5  C   UNL     1      48.196  82.927  42.250  0.00  0.00    +0.036 A 
ATOM      6  C   UNL     1      47.383  83.529  43.197  0.00  0.00    +0.141 A 
ATOM      7  C   UNL     1      47.586  84.774  43.719  0.00  0.00    +0.059 A 
ATOM      8  C   UNL     1      48.647  85.520  43.317  0.00  0.00    +0.142 A 
ATOM      9  F   UNL     1      48.874  86.761  43.819  0.00  0.00    -0.204 F 
ATOM     10  F   UNL     1      46.343  82.822  43.670  0.00  0.00    -0.204 F 
ENDBRANCH   1   5
BRANCH   1  11
ATOM     11  C   UNL     1      47.987  81.411  40.224  0.00  0.00    +0.166 C 
BRANCH  11  12
ATOM     12  N   UNL     1      46.738  81.510  39.524  0.00  0.00    -0.227 N 
ATOM     13  C   UNL     1      46.288  82.564  38.766  0.00  0.00    +0.197 A 
ATOM     14  N   UNL     1      45.089  82.309  38.267  0.00  0.00    -0.201 NA
ATOM     15  C   UNL     1      44.733  81.099  38.684  0.00  0.00    +0.221 A 
ATOM     16  N   UNL     1      45.741  80.635  39.440  0.00  0.00    -0.145 NA
ENDBRANCH  11  12
ENDBRANCH   1  11
BRANCH   1  17
ATOM     17  C   UNL     1      49.033  80.671  42.305  0.00  0.00    +0.166 C 
BRANCH  17  18
ATOM     18  N   UNL     1      50.279  81.393  42.460  0.00  0.00    -0.227 N 
ATOM     19  C   UNL     1      50.908  81.732  43.590  0.00  0.00    +0.197 A 
ATOM     20  N   UNL     1      52.031  82.395  43.294  0.00  0.00    -0.201 NA
ATOM     21  C   UNL     1      52.120  82.481  41.950  0.00  0.00    +0.221 A 
ATOM     22  N   UNL     1      51.042  81.864  41.464  0.00  0.00    -0.145 NA
ENDBRANCH  17  18
ENDBRANCH   1  17
TORSDOF 5
