REMARK  Name = Fludrocortisone
REMARK  2 active torsions:
REMARK  status: ('A' for Active; 'I' for Inactive)
REMARK    1  A    between atoms: C_19  and  C_20
REMARK    2  A    between atoms: C_20  and  C_22
REMARK                            x       y       z     vdW  Elec       q    Type
REMARK                         _______ _______ _______ _____ _____    ______ ____
ROOT
ATOM      1  C   UNL     1      44.022  79.535  41.492  0.00  0.00    +0.007 C 
ATOM      2  C   UNL     1      45.200  79.804  40.562  0.00  0.00    +0.046 C 
ATOM      3  C   UNL     1      45.646  78.482  40.030  0.00  0.00    +0.014 C 
ATOM      4  C   UNL     1      44.446  77.824  39.367  0.00  0.00    +0.070 C 
ATOM      5  C   UNL     1      44.044  78.671  38.204  0.00  0.00    +0.173 C 
ATOM      6  O   UNL     1      43.679  78.178  37.111  0.00  0.00    -0.291 OA
ATOM      7  C   UNL     1      44.097  80.124  38.401  0.00  0.00    +0.029 C 
ATOM      8  C   UNL     1      44.620  80.671  39.469  0.00  0.00    -0.039 C 
ATOM      9  C   UNL     1      44.709  82.131  39.734  0.00  0.00    +0.022 C 
ATOM     10  C   UNL     1      46.150  82.598  39.766  0.00  0.00    +0.007 C 
ATOM     11  C   UNL     1      47.004  81.443  40.254  0.00  0.00    +0.033 C 
ATOM     12  C   UNL     1      46.263  80.592  41.276  0.00  0.00    +0.164 C 
ATOM     13  C   UNL     1      47.333  79.717  41.892  0.00  0.00    +0.182 C 
ATOM     14  C   UNL     1      48.341  80.511  42.666  0.00  0.00    +0.038 C 
ATOM     15  C   UNL     1      48.752  81.787  42.059  0.00  0.00    +0.035 C 
ATOM     16  C   UNL     1      48.384  81.773  40.588  0.00  0.00    +0.006 C 
ATOM     17  C   UNL     1      48.927  83.102  40.183  0.00  0.00    +0.003 C 
ATOM     18  C   UNL     1      50.296  83.080  40.882  0.00  0.00    +0.038 C 
ATOM     19  C   UNL     1      50.265  81.915  41.850  0.00  0.00    +0.180 C 
ATOM     20  O   UNL     1      50.635  80.724  41.212  0.00  0.00    -0.218 OA
ATOM     21  C   UNL     1      48.344  83.013  42.793  0.00  0.00    +0.003 C 
ATOM     22  O   UNL     1      48.004  79.109  40.833  0.00  0.00    -0.220 OA
ATOM     23  F   UNL     1      45.589  81.339  42.203  0.00  0.00    -0.237 F 
ENDROOT
BRANCH  19  24
ATOM     24  C   UNL     1      51.004  82.133  43.095  0.00  0.00    +0.211 C 
ATOM     25  O   UNL     1      51.477  81.176  43.680  0.00  0.00    -0.291 OA
BRANCH  24  26
ATOM     26  C   UNL     1      51.200  83.511  43.681  0.00  0.00    +0.248 C 
ATOM     27  O   UNL     1      51.763  83.407  44.946  0.00  0.00    -0.212 OA
ENDBRANCH  24  26
ENDBRANCH  19  24
TORSDOF 2
