REMARK  Name = Fludarabine
REMARK  2 active torsions:
REMARK  status: ('A' for Active; 'I' for Inactive)
REMARK    1  A    between atoms: N_9  and  C1*_10
REMARK    2  A    between atoms: C4*_13  and  C5*_15
REMARK                            x       y       z     vdW  Elec       q    Type
REMARK                         _______ _______ _______ _____ _____    ______ ____
ROOT
ATOM      1  C   UNL     1      46.647  79.667  41.810  0.00  0.00    +0.182 A 
ATOM      2  N   UNL     1      47.000  80.734  41.087  0.00  0.00    -0.219 NA
ATOM      3  C   UNL     1      46.077  80.908  40.129  0.00  0.00    +0.152 A 
ATOM      4  C   UNL     1      45.959  81.848  39.126  0.00  0.00    +0.194 A 
ATOM      5  N   UNL     1      44.895  81.749  38.311  0.00  0.00    -0.181 NA
ATOM      6  C   UNL     1      43.972  80.761  38.469  0.00  0.00    +0.313 A 
ATOM      7  N   UNL     1      44.116  79.853  39.465  0.00  0.00    -0.182 NA
ATOM      8  C   UNL     1      45.145  79.900  40.301  0.00  0.00    +0.171 A 
ATOM      9  N   UNL     1      45.502  79.132  41.344  0.00  0.00    -0.269 N 
ATOM     10  F   UNL     1      42.942  80.747  37.602  0.00  0.00    -0.161 F 
ATOM     11  N   UNL     1      46.919  82.888  38.948  0.00  0.00    -0.105 NA
ENDROOT
BRANCH   9  12
ATOM     12  C1* UNL     1      44.867  77.997  41.890  0.00  0.00    +0.241 C 
ATOM     13  C2* UNL     1      44.727  76.830  40.938  0.00  0.00    +0.234 C 
ATOM     14  C3* UNL     1      44.183  75.807  41.949  0.00  0.00    +0.216 C 
ATOM     15  C4* UNL     1      44.984  76.180  43.166  0.00  0.00    +0.183 C 
ATOM     16  O4* UNL     1      45.553  77.406  42.947  0.00  0.00    -0.331 OA
ATOM     17  O3* UNL     1      44.365  74.521  41.522  0.00  0.00    -0.218 OA
ATOM     18  O2* UNL     1      45.962  76.323  40.539  0.00  0.00    -0.216 OA
BRANCH  15  19
ATOM     19  C5* UNL     1      46.058  75.156  43.491  0.00  0.00    +0.214 C 
ATOM     20  O5* UNL     1      47.330  75.668  43.293  0.00  0.00    -0.218 OA
ENDBRANCH  15  19
ENDBRANCH   9  12
TORSDOF 2
