REMARK  Name = Flumethasone_Pivalate
REMARK  5 active torsions:
REMARK  status: ('A' for Active; 'I' for Inactive)
REMARK    1  A    between atoms: C_19  and  C_20
REMARK    2  A    between atoms: C_20  and  C_22
REMARK    3  A    between atoms: C_22  and  O_23
REMARK    4  A    between atoms: O_23  and  C_24
REMARK    5  A    between atoms: C_24  and  C_26
REMARK                            x       y       z     vdW  Elec       q    Type
REMARK                         _______ _______ _______ _____ _____    ______ ____
ROOT
ATOM      1  C   UNL     1      51.123  85.129  43.867  0.00  0.00    +0.003 C 
ATOM      2  C   UNL     1      50.104  84.051  43.823  0.00  0.00    +0.035 C 
ATOM      3  C   UNL     1      49.093  84.225  42.710  0.00  0.00    +0.003 C 
ATOM      4  C   UNL     1      48.666  82.807  42.551  0.00  0.00    +0.006 C 
ATOM      5  C   UNL     1      47.712  82.484  41.497  0.00  0.00    +0.036 C 
ATOM      6  C   UNL     1      46.489  83.330  41.450  0.00  0.00    +0.042 C 
ATOM      7  C   UNL     1      45.519  82.895  40.409  0.00  0.00    +0.180 C 
ATOM      8  C   UNL     1      45.671  81.451  40.072  0.00  0.00    -0.003 C 
ATOM      9  C   UNL     1      45.415  81.053  38.822  0.00  0.00    +0.036 C 
ATOM     10  C   UNL     1      45.552  79.657  38.496  0.00  0.00    +0.195 C 
ATOM     11  O   UNL     1      45.313  79.282  37.324  0.00  0.00    -0.287 OA
ATOM     12  C   UNL     1      45.957  78.683  39.483  0.00  0.00    +0.038 C 
ATOM     13  C   UNL     1      46.206  79.120  40.695  0.00  0.00    -0.017 C 
ATOM     14  C   UNL     1      46.118  80.537  41.138  0.00  0.00    +0.066 C 
ATOM     15  C   UNL     1      47.363  81.003  41.762  0.00  0.00    +0.168 C 
ATOM     16  C   UNL     1      48.639  80.291  41.393  0.00  0.00    +0.182 C 
ATOM     17  C   UNL     1      49.759  80.654  42.356  0.00  0.00    +0.038 C 
ATOM     18  C   UNL     1      50.015  82.119  42.399  0.00  0.00    +0.035 C 
ATOM     19  C   UNL     1      50.740  82.641  43.594  0.00  0.00    +0.181 C 
ATOM     20  O   UNL     1      52.069  82.940  43.343  0.00  0.00    -0.218 OA
ATOM     21  C   UNL     1      50.714  82.595  41.141  0.00  0.00    +0.003 C 
ATOM     22  O   UNL     1      48.582  78.933  41.325  0.00  0.00    -0.220 OA
ATOM     23  F   UNL     1      47.263  80.881  43.158  0.00  0.00    -0.237 F 
ATOM     24  C   UNL     1      45.002  80.551  42.194  0.00  0.00    +0.011 C 
ATOM     25  F   UNL     1      45.565  83.662  39.264  0.00  0.00    -0.233 F 
ENDROOT
BRANCH  19  26
ATOM     26  C   UNL     1      50.599  81.855  44.825  0.00  0.00    +0.222 C 
ATOM     27  O   UNL     1      49.524  81.991  45.457  0.00  0.00    -0.290 OA
BRANCH  26  28
ATOM     28  C   UNL     1      51.582  80.941  45.393  0.00  0.00    +0.275 C 
BRANCH  28  29
ATOM     29  O   UNL     1      51.501  80.743  46.760  0.00  0.00    -0.440 OA
BRANCH  29  30
ATOM     30  C   UNL     1      52.335  80.024  47.570  0.00  0.00    +0.316 C 
ATOM     31  O   UNL     1      53.333  79.472  47.047  0.00  0.00    -0.250 OA
BRANCH  30  32
ATOM     32  C   UNL     1      52.129  79.856  49.026  0.00  0.00    +0.090 C 
ATOM     33  C   UNL     1      51.708  81.162  49.665  0.00  0.00    +0.011 C 
ATOM     34  C   UNL     1      51.134  78.812  49.403  0.00  0.00    +0.011 C 
ATOM     35  C   UNL     1      53.517  79.547  49.611  0.00  0.00    +0.011 C 
ENDBRANCH  30  32
ENDBRANCH  29  30
ENDBRANCH  28  29
ENDBRANCH  26  28
ENDBRANCH  19  26
TORSDOF 5
