REMARK  Name = Flunisolide
REMARK  2 active torsions:
REMARK  status: ('A' for Active; 'I' for Inactive)
REMARK    1  A    between atoms: C_21  and  C_23
REMARK    2  A    between atoms: C_23  and  C_25
REMARK                            x       y       z     vdW  Elec       q    Type
REMARK                         _______ _______ _______ _____ _____    ______ ____
ROOT
ATOM      1  C   UNL     1      43.976  79.166  42.515  0.00  0.00    +0.061 C 
ATOM      2  C   UNL     1      43.993  78.851  41.011  0.00  0.00    +0.188 C 
ATOM      3  O   UNL     1      45.036  77.892  40.841  0.00  0.00    -0.334 OA
ATOM      4  C   UNL     1      46.054  78.748  40.869  0.00  0.00    +0.149 C 
ATOM      5  C   UNL     1      47.441  78.555  40.681  0.00  0.00    +0.033 C 
ATOM      6  C   UNL     1      47.878  79.941  40.163  0.00  0.00    +0.005 C 
ATOM      7  C   UNL     1      48.756  80.666  41.148  0.00  0.00    +0.006 C 
ATOM      8  C   UNL     1      49.637  81.596  40.345  0.00  0.00    +0.040 C 
ATOM      9  C   UNL     1      50.719  82.099  41.284  0.00  0.00    +0.180 C 
ATOM     10  C   UNL     1      49.951  82.840  42.361  0.00  0.00    -0.006 C 
ATOM     11  C   UNL     1      50.222  84.098  42.542  0.00  0.00    +0.036 C 
ATOM     12  C   UNL     1      49.560  84.938  43.538  0.00  0.00    +0.195 C 
ATOM     13  O   UNL     1      49.835  86.151  43.701  0.00  0.00    -0.287 OA
ATOM     14  C   UNL     1      48.555  84.221  44.317  0.00  0.00    +0.038 C 
ATOM     15  C   UNL     1      48.291  82.953  44.127  0.00  0.00    -0.020 C 
ATOM     16  C   UNL     1      48.948  82.136  43.153  0.00  0.00    +0.039 C 
ATOM     17  C   UNL     1      48.012  81.311  42.268  0.00  0.00    +0.038 C 
ATOM     18  C   UNL     1      46.791  82.060  41.873  0.00  0.00    +0.153 C 
ATOM     19  C   UNL     1      46.322  81.912  40.494  0.00  0.00    +0.036 C 
ATOM     20  C   UNL     1      46.667  80.674  39.730  0.00  0.00    +0.034 C 
ATOM     21  C   UNL     1      45.606  79.635  39.724  0.00  0.00    +0.173 C 
ATOM     22  O   UNL     1      44.414  80.028  40.371  0.00  0.00    -0.330 OA
ATOM     23  C   UNL     1      46.880  81.112  38.270  0.00  0.00    +0.003 C 
ATOM     24  O   UNL     1      47.029  83.445  42.110  0.00  0.00    -0.223 OA
ATOM     25  C   UNL     1      49.763  81.097  43.989  0.00  0.00    +0.009 C 
ATOM     26  F   UNL     1      51.508  82.959  40.566  0.00  0.00    -0.233 F 
ATOM     27  C   UNL     1      42.663  78.348  40.597  0.00  0.00    +0.061 C 
ENDROOT
BRANCH  21  28
ATOM     28  C   UNL     1      45.240  79.016  38.481  0.00  0.00    +0.210 C 
ATOM     29  O   UNL     1      46.020  78.083  38.101  0.00  0.00    -0.291 OA
BRANCH  28  30
ATOM     30  C   UNL     1      44.163  79.197  37.514  0.00  0.00    +0.248 C 
ATOM     31  O   UNL     1      44.182  80.319  36.727  0.00  0.00    -0.212 OA
ENDBRANCH  28  30
ENDBRANCH  21  28
TORSDOF 2
