REMARK  Name = Flunitrazepam
REMARK  2 active torsions:
REMARK  status: ('A' for Active; 'I' for Inactive)
REMARK    1  A    between atoms: C_7  and  C_17
REMARK    2  A    between atoms: C_12  and  N_14
REMARK                            x       y       z     vdW  Elec       q    Type
REMARK                         _______ _______ _______ _____ _____    ______ ____
ROOT
ATOM      1  C   UNL     1      43.901  79.891  37.908  0.00  0.00    +0.120 C 
ATOM      2  N   UNL     1      44.871  80.469  38.816  0.00  0.00    -0.255 N 
ATOM      3  C   UNL     1      45.477  81.694  38.415  0.00  0.00    +0.254 C 
ATOM      4  O   UNL     1      45.389  81.975  37.170  0.00  0.00    -0.272 OA
ATOM      5  C   UNL     1      46.202  82.707  39.222  0.00  0.00    +0.210 C 
ATOM      6  N   UNL     1      47.104  82.173  40.188  0.00  0.00    -0.260 NA
ATOM      7  C   UNL     1      47.153  81.120  40.925  0.00  0.00    +0.080 C 
ATOM      8  C   UNL     1      46.153  80.061  40.959  0.00  0.00    +0.033 A 
ATOM      9  C   UNL     1      45.141  79.772  40.026  0.00  0.00    +0.055 A 
ATOM     10  C   UNL     1      44.275  78.721  40.225  0.00  0.00    +0.017 A 
ATOM     11  C   UNL     1      44.435  77.973  41.359  0.00  0.00    +0.025 A 
ATOM     12  C   UNL     1      45.434  78.255  42.284  0.00  0.00    +0.143 A 
ATOM     13  C   UNL     1      46.314  79.311  42.097  0.00  0.00    +0.027 A 
ENDROOT
BRANCH   7  14
ATOM     14  C   UNL     1      48.320  81.010  41.785  0.00  0.00    +0.045 A 
ATOM     15  C   UNL     1      49.101  79.888  41.870  0.00  0.00    +0.004 A 
ATOM     16  C   UNL     1      50.180  79.921  42.728  0.00  0.00    +0.000 A 
ATOM     17  C   UNL     1      50.497  81.027  43.493  0.00  0.00    +0.002 A 
ATOM     18  C   UNL     1      49.701  82.159  43.402  0.00  0.00    +0.030 A 
ATOM     19  C   UNL     1      48.628  82.120  42.545  0.00  0.00    +0.142 A 
ATOM     20  F   UNL     1      47.857  83.256  42.474  0.00  0.00    -0.204 F 
ENDBRANCH   7  14
BRANCH  12  21
ATOM     21  N   UNL     1      45.582  77.467  43.452  0.00  0.00    +0.058 N 
ATOM     22  O   UNL     1      44.724  76.603  43.712  0.00  0.00    -0.126 OA
ATOM     23  O   UNL     1      46.629  77.628  44.290  0.00  0.00    -0.126 OA
ENDBRANCH  12  21
TORSDOF 2
