REMARK  Name = Fluoxymesterone
REMARK  0 active torsions:
REMARK  status: ('A' for Active; 'I' for Inactive)
REMARK                            x       y       z     vdW  Elec       q    Type
REMARK                         _______ _______ _______ _____ _____    ______ ____
ROOT
ATOM      1  C   UNL     1      46.921  79.255  39.965  0.00  0.00    +0.007 C 
ATOM      2  C   UNL     1      46.953  80.751  40.351  0.00  0.00    +0.046 C 
ATOM      3  C   UNL     1      45.714  80.892  41.256  0.00  0.00    +0.014 C 
ATOM      4  C   UNL     1      44.486  80.390  40.541  0.00  0.00    +0.070 C 
ATOM      5  C   UNL     1      44.367  80.804  39.147  0.00  0.00    +0.173 C 
ATOM      6  O   UNL     1      43.288  80.552  38.546  0.00  0.00    -0.291 OA
ATOM      7  C   UNL     1      45.480  81.482  38.511  0.00  0.00    +0.029 C 
ATOM      8  C   UNL     1      46.656  81.440  39.089  0.00  0.00    -0.039 C 
ATOM      9  C   UNL     1      47.776  82.148  38.415  0.00  0.00    +0.022 C 
ATOM     10  C   UNL     1      48.191  83.149  39.477  0.00  0.00    +0.007 C 
ATOM     11  C   UNL     1      48.940  82.323  40.538  0.00  0.00    +0.033 C 
ATOM     12  C   UNL     1      48.215  81.140  41.020  0.00  0.00    +0.164 C 
ATOM     13  C   UNL     1      48.006  81.075  42.520  0.00  0.00    +0.182 C 
ATOM     14  C   UNL     1      49.173  81.707  43.275  0.00  0.00    +0.038 C 
ATOM     15  C   UNL     1      49.026  83.182  42.929  0.00  0.00    +0.028 C 
ATOM     16  C   UNL     1      49.451  83.312  41.524  0.00  0.00    +0.005 C 
ATOM     17  C   UNL     1      50.985  83.256  41.642  0.00  0.00    +0.003 C 
ATOM     18  C   UNL     1      51.331  83.562  43.059  0.00  0.00    +0.030 C 
ATOM     19  C   UNL     1      50.057  83.920  43.754  0.00  0.00    +0.127 C 
ATOM     20  C   UNL     1      49.822  85.400  43.807  0.00  0.00    +0.033 C 
ATOM     21  O   UNL     1      49.982  83.380  45.054  0.00  0.00    -0.226 OA
ATOM     22  C   UNL     1      47.641  83.691  43.187  0.00  0.00    +0.003 C 
ATOM     23  O   UNL     1      47.924  79.748  42.976  0.00  0.00    -0.220 OA
ATOM     24  F   UNL     1      49.086  80.035  40.824  0.00  0.00    -0.237 F 
ENDROOT
TORSDOF 0
