REMARK  Name = Fluorometholone
REMARK  1 active torsions:
REMARK  status: ('A' for Active; 'I' for Inactive)
REMARK    1  A    between atoms: C_8  and  C_24
REMARK                            x       y       z     vdW  Elec       q    Type
REMARK                         _______ _______ _______ _____ _____    ______ ____
ROOT
ATOM      1  C   UNL     1      45.388  77.738  41.868  0.00  0.00    +0.004 C 
ATOM      2  C   UNL     1      46.393  78.696  41.348  0.00  0.00    +0.019 C 
ATOM      3  C   UNL     1      46.948  79.625  42.419  0.00  0.00    +0.007 C 
ATOM      4  C   UNL     1      48.083  80.398  41.807  0.00  0.00    +0.034 C 
ATOM      5  C   UNL     1      48.520  81.428  42.770  0.00  0.00    +0.006 C 
ATOM      6  C   UNL     1      49.105  81.004  44.060  0.00  0.00    +0.003 C 
ATOM      7  C   UNL     1      49.741  82.314  44.564  0.00  0.00    +0.038 C 
ATOM      8  C   UNL     1      49.666  83.280  43.408  0.00  0.00    +0.177 C 
ATOM      9  C   UNL     1      49.662  82.317  42.244  0.00  0.00    +0.035 C 
ATOM     10  C   UNL     1      49.335  82.917  40.936  0.00  0.00    +0.038 C 
ATOM     11  C   UNL     1      48.959  81.746  40.012  0.00  0.00    +0.182 C 
ATOM     12  C   UNL     1      47.675  81.190  40.551  0.00  0.00    +0.168 C 
ATOM     13  C   UNL     1      46.833  80.436  39.600  0.00  0.00    +0.064 C 
ATOM     14  C   UNL     1      45.828  79.636  40.329  0.00  0.00    -0.036 C 
ATOM     15  C   UNL     1      44.527  79.684  40.160  0.00  0.00    +0.034 C 
ATOM     16  C   UNL     1      44.003  80.596  39.179  0.00  0.00    +0.195 C 
ATOM     17  O   UNL     1      42.757  80.645  39.012  0.00  0.00    -0.287 OA
ATOM     18  C   UNL     1      44.923  81.417  38.427  0.00  0.00    +0.038 C 
ATOM     19  C   UNL     1      46.227  81.354  38.612  0.00  0.00    -0.017 C 
ATOM     20  C   UNL     1      47.722  79.407  38.884  0.00  0.00    +0.011 C 
ATOM     21  F   UNL     1      46.935  82.271  41.029  0.00  0.00    -0.237 F 
ATOM     22  O   UNL     1      49.004  82.063  38.696  0.00  0.00    -0.220 OA
ATOM     23  C   UNL     1      50.892  81.473  42.202  0.00  0.00    +0.003 C 
ATOM     24  O   UNL     1      48.356  83.815  43.439  0.00  0.00    -0.218 OA
ENDROOT
BRANCH   8  25
ATOM     25  C   UNL     1      50.671  84.323  43.368  0.00  0.00    +0.178 C 
ATOM     26  O   UNL     1      51.745  84.090  43.956  0.00  0.00    -0.293 OA
ATOM     27  C   UNL     1      50.574  85.631  42.711  0.00  0.00    +0.075 C 
ENDBRANCH   8  25
TORSDOF 1
