REMARK  Name = Fluocinonide
REMARK  4 active torsions:
REMARK  status: ('A' for Active; 'I' for Inactive)
REMARK    1  A    between atoms: C_2  and  O_4
REMARK    2  A    between atoms: O_4  and  C_5
REMARK    3  A    between atoms: C_5  and  C_6
REMARK    4  A    between atoms: C_6  and  C_8
REMARK                            x       y       z     vdW  Elec       q    Type
REMARK                         _______ _______ _______ _____ _____    ______ ____
ROOT
ATOM      1  C   UNL     1      48.949  82.303  41.589  0.00  0.00    +0.174 C 
ATOM      2  C   UNL     1      48.417  82.126  42.993  0.00  0.00    +0.149 C 
ATOM      3  C   UNL     1      47.745  80.808  42.954  0.00  0.00    +0.033 C 
ATOM      4  C   UNL     1      47.454  80.411  41.524  0.00  0.00    +0.008 C 
ATOM      5  C   UNL     1      47.995  81.510  40.705  0.00  0.00    +0.034 C 
ATOM      6  C   UNL     1      46.837  82.348  40.205  0.00  0.00    +0.038 C 
ATOM      7  C   UNL     1      46.008  81.445  39.313  0.00  0.00    +0.182 C 
ATOM      8  C   UNL     1      45.329  80.390  40.128  0.00  0.00    +0.168 C 
ATOM      9  C   UNL     1      45.937  80.218  41.462  0.00  0.00    +0.036 C 
ATOM     10  C   UNL     1      45.599  78.995  42.222  0.00  0.00    +0.042 C 
ATOM     11  C   UNL     1      44.622  78.039  41.647  0.00  0.00    +0.180 C 
ATOM     12  C   UNL     1      44.150  78.362  40.291  0.00  0.00    -0.003 C 
ATOM     13  C   UNL     1      42.969  78.008  39.892  0.00  0.00    +0.036 C 
ATOM     14  C   UNL     1      42.446  78.304  38.553  0.00  0.00    +0.195 C 
ATOM     15  O   UNL     1      41.293  77.935  38.222  0.00  0.00    -0.287 OA
ATOM     16  C   UNL     1      43.302  79.031  37.635  0.00  0.00    +0.038 C 
ATOM     17  C   UNL     1      44.499  79.381  38.063  0.00  0.00    -0.017 C 
ATOM     18  C   UNL     1      45.056  79.105  39.383  0.00  0.00    +0.066 C 
ATOM     19  C   UNL     1      46.269  78.228  39.196  0.00  0.00    +0.011 C 
ATOM     20  F   UNL     1      43.485  77.909  42.447  0.00  0.00    -0.233 F 
ATOM     21  F   UNL     1      44.029  80.907  40.352  0.00  0.00    -0.237 F 
ATOM     22  O   UNL     1      45.082  82.317  38.685  0.00  0.00    -0.220 OA
ATOM     23  C   UNL     1      48.817  81.103  39.504  0.00  0.00    +0.003 C 
ATOM     24  O   UNL     1      47.569  83.229  43.151  0.00  0.00    -0.334 OA
ATOM     25  C   UNL     1      48.216  84.253  42.442  0.00  0.00    +0.188 C 
ATOM     26  O   UNL     1      48.797  83.639  41.339  0.00  0.00    -0.330 OA
ATOM     27  C   UNL     1      47.219  85.273  41.958  0.00  0.00    +0.061 C 
ATOM     28  C   UNL     1      49.331  84.877  43.248  0.00  0.00    +0.061 C 
ENDROOT
BRANCH   1  29
ATOM     29  C   UNL     1      50.352  81.871  41.486  0.00  0.00    +0.221 C 
ATOM     30  O   UNL     1      51.149  82.665  40.961  0.00  0.00    -0.290 OA
BRANCH  29  31
ATOM     31  C   UNL     1      50.855  80.564  41.971  0.00  0.00    +0.275 C 
BRANCH  31  32
ATOM     32  O   UNL     1      51.420  79.840  40.881  0.00  0.00    -0.440 OA
BRANCH  32  34
ATOM     33  C   UNL     1      51.959  77.696  39.678  0.00  0.00    +0.121 C 
ATOM     34  C   UNL     1      51.443  78.469  40.826  0.00  0.00    +0.318 C 
ATOM     35  O   UNL     1      50.995  77.836  41.819  0.00  0.00    -0.250 OA
ENDBRANCH  32  34
ENDBRANCH  31  32
ENDBRANCH  29  31
ENDBRANCH   1  29
TORSDOF 4
