REMARK  Name = Fluorodopa_F_18
REMARK  3 active torsions:
REMARK  status: ('A' for Active; 'I' for Inactive)
REMARK    1  A    between atoms: C_2  and  C_10
REMARK    2  A    between atoms: C_10  and  CA_11
REMARK    3  A    between atoms: CA_11  and  C_12
REMARK                            x       y       z     vdW  Elec       q    Type
REMARK                         _______ _______ _______ _____ _____    ______ ____
ROOT
ATOM      1  C   UNL     1      47.355  82.410  40.218  0.00  0.00    +0.043 A 
ATOM      2  C   UNL     1      47.602  81.580  41.319  0.00  0.00    +0.011 A 
ATOM      3  C   UNL     1      46.792  80.470  41.411  0.00  0.00    +0.140 A 
ATOM      4  C   UNL     1      45.804  80.197  40.478  0.00  0.00    +0.075 A 
ATOM      5  C   UNL     1      45.577  81.024  39.403  0.00  0.00    +0.236 A 
ATOM      6  C   UNL     1      46.374  82.141  39.290  0.00  0.00    +0.234 A 
ATOM      7  O   UNL     1      46.146  82.983  38.202  0.00  0.00    -0.283 OA
ATOM      8  O   UNL     1      44.574  80.743  38.460  0.00  0.00    -0.283 OA
ATOM      9  F   UNL     1      46.953  79.631  42.471  0.00  0.00    -0.204 F 
ENDROOT
BRANCH   2  10
ATOM     10  C   UNL     1      48.681  81.885  42.281  0.00  0.00    +0.059 C 
BRANCH  10  11
ATOM     11  CA  UNL     1      49.922  81.061  42.150  0.00  0.00    +0.199 C 
ATOM     12  N   UNL     1      50.140  80.974  40.681  0.00  0.00    -0.120 NA
BRANCH  11  13
ATOM     13  C   UNL     1      51.134  81.674  42.698  0.00  0.00    +0.382 C 
ATOM     14  O   UNL     1      51.270  81.839  43.920  0.00  0.00    -0.244 OA
ATOM     15  OXT UNL     1      52.136  82.076  41.838  0.00  0.00    -0.244 OA
ENDBRANCH  11  13
ENDBRANCH  10  11
ENDBRANCH   2  10
TORSDOF 3
