REMARK  Name = FLUORESCEIN
REMARK  0 active torsions:
REMARK  status: ('A' for Active; 'I' for Inactive)
REMARK                            x       y       z     vdW  Elec       q    Type
REMARK                         _______ _______ _______ _____ _____    ______ ____
ROOT
ATOM      1  C   UNL     1      47.513  85.042  44.882  0.00  0.00    +0.000 A 
ATOM      2  C   UNL     1      47.642  85.484  43.581  0.00  0.00    -0.000 A 
ATOM      3  C   UNL     1      47.983  84.548  42.628  0.00  0.00    -0.000 A 
ATOM      4  C   UNL     1      48.196  83.216  42.924  0.00  0.00    +0.028 A 
ATOM      5  C   UNL     1      48.072  82.763  44.210  0.00  0.00    +0.076 A 
ATOM      6  C   UNL     1      47.726  83.711  45.175  0.00  0.00    +0.006 A 
ATOM      7  C   UNL     1      48.345  81.333  44.256  0.00  0.00    +0.342 C 
ATOM      8  O   UNL     1      48.301  80.657  45.321  0.00  0.00    -0.245 OA
ATOM      9  O   UNL     1      48.634  80.941  42.973  0.00  0.00    -0.440 OA
ATOM     10  C   UNL     1      48.563  82.039  42.102  0.00  0.00    +0.198 C 
ATOM     11  C   UNL     1      47.571  81.806  41.012  0.00  0.00    +0.056 A 
ATOM     12  C   UNL     1      47.894  81.843  39.680  0.00  0.00    +0.148 A 
ATOM     13  C   UNL     1      46.930  81.618  38.688  0.00  0.00    +0.079 A 
ATOM     14  C   UNL     1      45.620  81.352  39.015  0.00  0.00    +0.199 A 
ATOM     15  C   UNL     1      45.296  81.315  40.349  0.00  0.00    +0.042 A 
ATOM     16  C   UNL     1      46.253  81.538  41.321  0.00  0.00    +0.006 A 
ATOM     17  O   UNL     1      44.696  81.135  38.004  0.00  0.00    -0.286 OA
ATOM     18  O   UNL     1      49.210  82.109  39.295  0.00  0.00    -0.454 OA
ATOM     19  C   UNL     1      50.224  82.342  40.207  0.00  0.00    +0.148 A 
ATOM     20  C   UNL     1      49.916  82.308  41.531  0.00  0.00    +0.056 A 
ATOM     21  C   UNL     1      50.934  82.542  42.434  0.00  0.00    +0.006 A 
ATOM     22  C   UNL     1      52.206  82.798  42.018  0.00  0.00    +0.042 A 
ATOM     23  C   UNL     1      52.505  82.829  40.677  0.00  0.00    +0.199 A 
ATOM     24  C   UNL     1      51.514  82.601  39.767  0.00  0.00    +0.079 A 
ATOM     25  O   UNL     1      53.801  83.090  40.256  0.00  0.00    -0.286 OA
ENDROOT
TORSDOF 0
