REMARK  Name = Fluocinolone_Acetonide
REMARK  2 active torsions:
REMARK  status: ('A' for Active; 'I' for Inactive)
REMARK    1  A    between atoms: C_21  and  C_23
REMARK    2  A    between atoms: C_23  and  C_25
REMARK                            x       y       z     vdW  Elec       q    Type
REMARK                         _______ _______ _______ _____ _____    ______ ____
ROOT
ATOM      1  C   UNL     1      43.196  77.067  39.563  0.00  0.00    +0.061 C 
ATOM      2  C   UNL     1      44.087  77.848  40.448  0.00  0.00    +0.188 C 
ATOM      3  O   UNL     1      43.573  79.147  40.762  0.00  0.00    -0.334 OA
ATOM      4  C   UNL     1      44.663  79.617  41.320  0.00  0.00    +0.149 C 
ATOM      5  C   UNL     1      45.028  80.952  41.719  0.00  0.00    +0.033 C 
ATOM      6  C   UNL     1      46.502  80.628  41.968  0.00  0.00    +0.008 C 
ATOM      7  C   UNL     1      47.396  81.756  42.237  0.00  0.00    +0.036 C 
ATOM      8  C   UNL     1      46.908  82.600  43.387  0.00  0.00    +0.042 C 
ATOM      9  C   UNL     1      48.143  83.198  44.034  0.00  0.00    +0.180 C 
ATOM     10  C   UNL     1      49.228  83.238  43.009  0.00  0.00    -0.003 C 
ATOM     11  C   UNL     1      50.457  82.994  43.401  0.00  0.00    +0.036 C 
ATOM     12  C   UNL     1      51.542  83.018  42.464  0.00  0.00    +0.195 C 
ATOM     13  O   UNL     1      52.750  82.788  42.798  0.00  0.00    -0.287 OA
ATOM     14  C   UNL     1      51.295  83.310  41.077  0.00  0.00    +0.038 C 
ATOM     15  C   UNL     1      50.051  83.551  40.706  0.00  0.00    -0.017 C 
ATOM     16  C   UNL     1      48.887  83.543  41.604  0.00  0.00    +0.066 C 
ATOM     17  C   UNL     1      47.795  82.587  41.062  0.00  0.00    +0.168 C 
ATOM     18  C   UNL     1      48.399  81.683  40.036  0.00  0.00    +0.182 C 
ATOM     19  C   UNL     1      47.823  80.353  39.829  0.00  0.00    +0.038 C 
ATOM     20  C   UNL     1      46.915  79.750  40.838  0.00  0.00    +0.034 C 
ATOM     21  C   UNL     1      45.623  79.391  40.160  0.00  0.00    +0.173 C 
ATOM     22  O   UNL     1      45.381  78.059  39.987  0.00  0.00    -0.330 OA
ATOM     23  C   UNL     1      47.574  78.518  41.455  0.00  0.00    +0.003 C 
ATOM     24  O   UNL     1      48.284  82.389  38.795  0.00  0.00    -0.220 OA
ATOM     25  F   UNL     1      46.764  83.376  40.588  0.00  0.00    -0.237 F 
ATOM     26  C   UNL     1      48.340  84.978  41.608  0.00  0.00    +0.011 C 
ATOM     27  F   UNL     1      47.928  84.375  44.670  0.00  0.00    -0.233 F 
ATOM     28  C   UNL     1      44.188  77.088  41.778  0.00  0.00    +0.061 C 
ENDROOT
BRANCH  21  29
ATOM     29  C   UNL     1      45.323  80.110  38.932  0.00  0.00    +0.210 C 
ATOM     30  O   UNL     1      46.179  80.832  38.425  0.00  0.00    -0.291 OA
BRANCH  29  31
ATOM     31  C   UNL     1      44.018  80.039  38.211  0.00  0.00    +0.248 C 
ATOM     32  O   UNL     1      44.198  80.448  36.860  0.00  0.00    -0.212 OA
ENDBRANCH  29  31
ENDBRANCH  21  29
TORSDOF 2
