REMARK  Name = Fluphenazine
REMARK  7 active torsions:
REMARK  status: ('A' for Active; 'I' for Inactive)
REMARK    1  A    between atoms: N_3  and  C_28
REMARK    2  A    between atoms: N_6  and  C_7
REMARK    3  A    between atoms: C_7  and  C_8
REMARK    4  A    between atoms: C_8  and  C_9
REMARK    5  A    between atoms: C_9  and  N_10
REMARK    6  A    between atoms: C_21  and  C_24
REMARK    7  A    between atoms: C_28  and  C_29
REMARK                            x       y       z     vdW  Elec       q    Type
REMARK                         _______ _______ _______ _____ _____    ______ ____
ROOT
ATOM      1  N   UNL     1      44.508  78.182  40.351  0.00  0.00    -0.286 N 
ATOM      2  C   UNL     1      44.166  77.070  41.199  0.00  0.00    +0.058 A 
ATOM      3  C   UNL     1      43.166  76.193  40.831  0.00  0.00    +0.015 A 
ATOM      4  C   UNL     1      42.799  75.125  41.611  0.00  0.00    +0.001 A 
ATOM      5  C   UNL     1      43.422  74.877  42.816  0.00  0.00    +0.001 A 
ATOM      6  C   UNL     1      44.431  75.751  43.203  0.00  0.00    +0.008 A 
ATOM      7  C   UNL     1      44.770  76.806  42.398  0.00  0.00    +0.043 A 
ATOM      8  S   UNL     1      46.061  77.860  42.998  0.00  0.00    -0.084 S 
ATOM      9  C   UNL     1      46.286  79.140  41.788  0.00  0.00    +0.043 A 
ATOM     10  C   UNL     1      45.512  79.141  40.654  0.00  0.00    +0.058 A 
ATOM     11  C   UNL     1      45.787  80.192  39.769  0.00  0.00    +0.019 A 
ATOM     12  C   UNL     1      46.753  81.150  40.010  0.00  0.00    +0.073 A 
ATOM     13  C   UNL     1      47.510  81.123  41.152  0.00  0.00    +0.004 A 
ATOM     14  C   UNL     1      47.242  80.092  42.023  0.00  0.00    +0.008 A 
ENDROOT
BRANCH  12  15
ATOM     15  C   UNL     1      46.984  82.232  39.023  0.00  0.00    +0.419 C 
ATOM     16  F   UNL     1      46.930  81.720  37.720  0.00  0.00    -0.166 F 
ATOM     17  F   UNL     1      46.037  83.217  39.090  0.00  0.00    -0.166 F 
ATOM     18  F   UNL     1      48.221  82.816  39.238  0.00  0.00    -0.166 F 
ENDBRANCH  12  15
BRANCH   1  19
ATOM     19  C   UNL     1      43.776  78.269  39.098  0.00  0.00    +0.097 C 
BRANCH  19  20
ATOM     20  C   UNL     1      42.276  78.275  39.359  0.00  0.00    +0.039 C 
BRANCH  20  21
ATOM     21  C   UNL     1      41.496  78.154  38.070  0.00  0.00    +0.074 C 
BRANCH  21  27
ATOM     22  C   UNL     1      40.055  76.475  38.880  0.00  0.00    +0.090 C 
ATOM     23  C   UNL     1      39.122  75.373  38.479  0.00  0.00    +0.090 C 
ATOM     24  N   UNL     1      38.375  75.654  37.260  0.00  0.00    -0.268 NA
ATOM     25  C   UNL     1      39.010  76.754  36.612  0.00  0.00    +0.090 C 
ATOM     26  C   UNL     1      40.528  76.558  36.575  0.00  0.00    +0.090 C 
ATOM     27  N   UNL     1      41.053  76.799  37.907  0.00  0.00    -0.270 NA
BRANCH  24  28
ATOM     28  C   UNL     1      38.264  74.462  36.453  0.00  0.00    +0.108 C 
BRANCH  28  29
ATOM     29  C   UNL     1      36.999  73.712  36.722  0.00  0.00    +0.199 C 
ATOM     30  O   UNL     1      37.232  72.321  36.786  0.00  0.00    -0.219 OA
ENDBRANCH  28  29
ENDBRANCH  24  28
ENDBRANCH  21  27
ENDBRANCH  20  21
ENDBRANCH  19  20
ENDBRANCH   1  19
TORSDOF 7
