REMARK  Name = Fluprednisolone
REMARK  2 active torsions:
REMARK  status: ('A' for Active; 'I' for Inactive)
REMARK    1  A    between atoms: C_10  and  C_11
REMARK    2  A    between atoms: C_11  and  C_13
REMARK                            x       y       z     vdW  Elec       q    Type
REMARK                         _______ _______ _______ _____ _____    ______ ____
ROOT
ATOM      1  C   UNL     1      50.040  82.192  40.757  0.00  0.00    +0.003 C 
ATOM      2  C   UNL     1      49.046  82.076  41.892  0.00  0.00    +0.035 C 
ATOM      3  C   UNL     1      48.920  80.671  42.383  0.00  0.00    +0.036 C 
ATOM      4  C   UNL     1      47.975  79.815  41.627  0.00  0.00    +0.153 C 
ATOM      5  C   UNL     1      47.413  80.508  40.411  0.00  0.00    +0.038 C 
ATOM      6  C   UNL     1      46.851  81.851  40.703  0.00  0.00    +0.006 C 
ATOM      7  C   UNL     1      47.724  82.714  41.548  0.00  0.00    +0.003 C 
ATOM      8  C   UNL     1      47.159  83.082  42.872  0.00  0.00    +0.003 C 
ATOM      9  C   UNL     1      48.296  83.089  43.871  0.00  0.00    +0.038 C 
ATOM     10  C   UNL     1      49.518  83.014  42.989  0.00  0.00    +0.180 C 
ATOM     11  O   UNL     1      49.749  84.272  42.477  0.00  0.00    -0.218 OA
ATOM     12  C   UNL     1      46.558  82.505  39.337  0.00  0.00    +0.040 C 
ATOM     13  C   UNL     1      45.341  81.802  38.752  0.00  0.00    +0.180 C 
ATOM     14  C   UNL     1      45.177  80.486  39.481  0.00  0.00    -0.006 C 
ATOM     15  C   UNL     1      43.975  80.157  39.831  0.00  0.00    +0.036 C 
ATOM     16  C   UNL     1      43.668  78.919  40.544  0.00  0.00    +0.195 C 
ATOM     17  O   UNL     1      42.498  78.611  40.877  0.00  0.00    -0.287 OA
ATOM     18  C   UNL     1      44.829  78.089  40.830  0.00  0.00    +0.038 C 
ATOM     19  C   UNL     1      46.040  78.433  40.468  0.00  0.00    -0.020 C 
ATOM     20  C   UNL     1      46.353  79.658  39.751  0.00  0.00    +0.039 C 
ATOM     21  C   UNL     1      46.980  79.196  38.408  0.00  0.00    +0.009 C 
ATOM     22  F   UNL     1      45.553  81.576  37.425  0.00  0.00    -0.233 F 
ATOM     23  O   UNL     1      46.944  79.312  42.450  0.00  0.00    -0.223 OA
ENDROOT
BRANCH  10  24
ATOM     24  C   UNL     1      50.711  82.508  43.696  0.00  0.00    +0.211 C 
ATOM     25  O   UNL     1      51.812  82.424  43.190  0.00  0.00    -0.291 OA
BRANCH  24  26
ATOM     26  C   UNL     1      50.584  82.069  45.115  0.00  0.00    +0.248 C 
ATOM     27  O   UNL     1      51.593  81.181  45.479  0.00  0.00    -0.212 OA
ENDBRANCH  24  26
ENDBRANCH  10  24
TORSDOF 2
