REMARK  Name = Flurandrenolide
REMARK  2 active torsions:
REMARK  status: ('A' for Active; 'I' for Inactive)
REMARK    1  A    between atoms: C_21  and  C_23
REMARK    2  A    between atoms: C_23  and  C_25
REMARK                            x       y       z     vdW  Elec       q    Type
REMARK                         _______ _______ _______ _____ _____    ______ ____
ROOT
ATOM      1  C   UNL     1      44.111  76.244  40.200  0.00  0.00    +0.061 C 
ATOM      2  C   UNL     1      44.371  77.447  41.109  0.00  0.00    +0.188 C 
ATOM      3  O   UNL     1      45.732  77.410  41.411  0.00  0.00    -0.334 OA
ATOM      4  C   UNL     1      46.343  78.163  40.414  0.00  0.00    +0.149 C 
ATOM      5  C   UNL     1      47.496  78.909  41.049  0.00  0.00    +0.033 C 
ATOM      6  C   UNL     1      46.784  80.066  41.766  0.00  0.00    +0.005 C 
ATOM      7  C   UNL     1      47.689  81.144  42.197  0.00  0.00    +0.006 C 
ATOM      8  C   UNL     1      47.504  81.545  43.667  0.00  0.00    +0.040 C 
ATOM      9  C   UNL     1      48.638  82.531  43.969  0.00  0.00    +0.179 C 
ATOM     10  C   UNL     1      49.543  82.669  42.812  0.00  0.00    -0.010 C 
ATOM     11  C   UNL     1      50.822  82.405  42.969  0.00  0.00    +0.032 C 
ATOM     12  C   UNL     1      51.770  82.522  41.863  0.00  0.00    +0.173 C 
ATOM     13  O   UNL     1      52.902  82.040  41.976  0.00  0.00    -0.291 OA
ATOM     14  C   UNL     1      51.303  83.230  40.644  0.00  0.00    +0.069 C 
ATOM     15  C   UNL     1      49.895  82.808  40.362  0.00  0.00    +0.012 C 
ATOM     16  C   UNL     1      48.962  83.101  41.518  0.00  0.00    +0.021 C 
ATOM     17  C   UNL     1      47.648  82.393  41.393  0.00  0.00    +0.034 C 
ATOM     18  C   UNL     1      47.214  82.152  39.973  0.00  0.00    +0.152 C 
ATOM     19  C   UNL     1      45.764  81.653  40.097  0.00  0.00    +0.036 C 
ATOM     20  C   UNL     1      45.619  80.430  40.912  0.00  0.00    +0.034 C 
ATOM     21  C   UNL     1      45.303  79.213  40.083  0.00  0.00    +0.173 C 
ATOM     22  O   UNL     1      44.093  78.629  40.471  0.00  0.00    -0.330 OA
ATOM     23  C   UNL     1      44.416  80.620  41.859  0.00  0.00    +0.003 C 
ATOM     24  O   UNL     1      47.138  83.371  39.312  0.00  0.00    -0.223 OA
ATOM     25  C   UNL     1      48.770  84.623  41.520  0.00  0.00    +0.004 C 
ATOM     26  F   UNL     1      49.343  82.057  45.059  0.00  0.00    -0.233 F 
ATOM     27  C   UNL     1      43.621  77.287  42.422  0.00  0.00    +0.061 C 
ENDROOT
BRANCH  21  28
ATOM     28  C   UNL     1      45.211  79.447  38.633  0.00  0.00    +0.210 C 
ATOM     29  O   UNL     1      46.215  79.543  37.950  0.00  0.00    -0.291 OA
BRANCH  28  30
ATOM     30  C   UNL     1      43.910  79.582  37.914  0.00  0.00    +0.248 C 
ATOM     31  O   UNL     1      43.914  80.602  36.995  0.00  0.00    -0.212 OA
ENDBRANCH  28  30
ENDBRANCH  21  28
TORSDOF 2
