REMARK  Name = Flurazepam
REMARK  6 active torsions:
REMARK  status: ('A' for Active; 'I' for Inactive)
REMARK    1  A    between atoms: C_2  and  N_3
REMARK    2  A    between atoms: N_3  and  C_4
REMARK    3  A    between atoms: N_3  and  C_6
REMARK    4  A    between atoms: C_6  and  C_7
REMARK    5  A    between atoms: C_7  and  N_8
REMARK    6  A    between atoms: C_13  and  C_21
REMARK                            x       y       z     vdW  Elec       q    Type
REMARK                         _______ _______ _______ _____ _____    ______ ____
ROOT
ATOM      1  N   UNL     1      45.261  80.669  39.510  0.00  0.00    -0.256 N 
ATOM      2  C   UNL     1      45.771  81.553  38.483  0.00  0.00    +0.254 C 
ATOM      3  O   UNL     1      45.096  81.485  37.404  0.00  0.00    -0.272 OA
ATOM      4  C   UNL     1      46.880  82.503  38.397  0.00  0.00    +0.210 C 
ATOM      5  N   UNL     1      47.470  82.889  39.648  0.00  0.00    -0.260 NA
ATOM      6  C   UNL     1      47.607  82.356  40.785  0.00  0.00    +0.080 C 
ATOM      7  C   UNL     1      47.149  81.036  41.208  0.00  0.00    +0.032 A 
ATOM      8  C   UNL     1      46.079  80.342  40.633  0.00  0.00    +0.055 A 
ATOM      9  C   UNL     1      45.711  79.123  41.137  0.00  0.00    +0.016 A 
ATOM     10  C   UNL     1      46.396  78.571  42.216  0.00  0.00    +0.013 A 
ATOM     11  C   UNL     1      47.460  79.275  42.776  0.00  0.00    +0.058 A 
ATOM     12  C   UNL     1      47.848  80.515  42.278  0.00  0.00    +0.014 A 
ATOM     13 CL   UNL     1      48.337  78.594  44.139  0.00  0.00    -0.082 Cl
ENDROOT
BRANCH   6  14
ATOM     14  C   UNL     1      48.291  83.090  41.862  0.00  0.00    +0.045 A 
ATOM     15  C   UNL     1      47.609  83.848  42.800  0.00  0.00    +0.004 A 
ATOM     16  C   UNL     1      48.335  84.486  43.777  0.00  0.00    +0.000 A 
ATOM     17  C   UNL     1      49.707  84.401  43.860  0.00  0.00    +0.002 A 
ATOM     18  C   UNL     1      50.354  83.635  42.906  0.00  0.00    +0.030 A 
ATOM     19  C   UNL     1      49.660  82.982  41.913  0.00  0.00    +0.142 A 
ATOM     20  F   UNL     1      50.352  82.233  40.982  0.00  0.00    -0.204 F 
ENDBRANCH   6  14
BRANCH   1  21
ATOM     21  C   UNL     1      43.949  80.115  39.391  0.00  0.00    +0.116 C 
BRANCH  21  22
ATOM     22  C   UNL     1      43.816  78.970  38.438  0.00  0.00    +0.094 C 
BRANCH  22  23
ATOM     23  N   UNL     1      42.618  78.209  38.552  0.00  0.00    -0.271 NA
BRANCH  23  25
ATOM     24  C   UNL     1      41.070  77.930  36.751  0.00  0.00    +0.019 C 
ATOM     25  C   UNL     1      41.468  78.790  37.961  0.00  0.00    +0.072 C 
ENDBRANCH  23  25
BRANCH  23  26
ATOM     26  C   UNL     1      42.684  76.822  38.703  0.00  0.00    +0.072 C 
ATOM     27  C   UNL     1      41.855  76.202  39.801  0.00  0.00    +0.019 C 
ENDBRANCH  23  26
ENDBRANCH  22  23
ENDBRANCH  21  22
ENDBRANCH   1  21
TORSDOF 6
