REMARK  Name = Flurbiprofen
REMARK  3 active torsions:
REMARK  status: ('A' for Active; 'I' for Inactive)
REMARK    1  A    between atoms: C_2  and  C_3
REMARK    2  A    between atoms: C_2  and  C_16
REMARK    3  A    between atoms: C_6  and  C_9
REMARK                            x       y       z     vdW  Elec       q    Type
REMARK                         _______ _______ _______ _____ _____    ______ ____
ROOT
ATOM      1  C   UNL     1      48.766  82.124  42.186  0.00  0.00    -0.010 A 
ATOM      2  C   UNL     1      48.243  80.964  42.727  0.00  0.00    +0.026 A 
ATOM      3  C   UNL     1      47.228  80.284  42.086  0.00  0.00    +0.140 A 
ATOM      4  C   UNL     1      46.727  80.775  40.879  0.00  0.00    +0.027 A 
ATOM      5  C   UNL     1      47.273  81.935  40.368  0.00  0.00    +0.002 A 
ATOM      6  C   UNL     1      48.290  82.632  40.995  0.00  0.00    -0.004 A 
ATOM      7  F   UNL     1      46.733  79.145  42.642  0.00  0.00    -0.204 F 
ENDROOT
BRANCH   4   8
ATOM      8  C   UNL     1      45.646  80.058  40.188  0.00  0.00    +0.002 A 
ATOM      9  C   UNL     1      44.877  80.693  39.226  0.00  0.00    +0.000 A 
ATOM     10  C   UNL     1      43.879  79.976  38.610  0.00  0.00    +0.000 A 
ATOM     11  C   UNL     1      43.630  78.658  38.925  0.00  0.00    +0.000 A 
ATOM     12  C   UNL     1      44.385  78.010  39.879  0.00  0.00    +0.000 A 
ATOM     13  C   UNL     1      45.392  78.737  40.499  0.00  0.00    +0.000 A 
ENDBRANCH   4   8
BRANCH   1  15
ATOM     14  C   UNL     1      49.632  84.363  42.836  0.00  0.00    +0.017 C 
ATOM     15  C   UNL     1      49.866  82.859  42.884  0.00  0.00    +0.126 C 
BRANCH  15  16
ATOM     16  C   UNL     1      51.176  82.502  42.276  0.00  0.00    +0.368 C 
ATOM     17  O   UNL     1      52.011  81.798  42.887  0.00  0.00    -0.245 OA
ATOM     18  O   UNL     1      51.493  82.953  41.006  0.00  0.00    -0.245 OA
ENDBRANCH  15  16
ENDBRANCH   1  15
TORSDOF 3
