REMARK  Name = Fluspirilene
REMARK  7 active torsions:
REMARK  status: ('A' for Active; 'I' for Inactive)
REMARK    1  A    between atoms: N_3  and  C_18
REMARK    2  A    between atoms: N_11  and  C_12
REMARK    3  A    between atoms: C_18  and  C_19
REMARK    4  A    between atoms: C_19  and  C_20
REMARK    5  A    between atoms: C_20  and  C_21
REMARK    6  A    between atoms: C_21  and  C_22
REMARK    7  A    between atoms: C_21  and  C_29
REMARK                            x       y       z     vdW  Elec       q    Type
REMARK                         _______ _______ _______ _____ _____    ______ ____
ROOT
ATOM      1  C   UNL     1      48.357  81.248  40.922  0.00  0.00    +0.072 C 
ENDROOT
BRANCH   1   4
ATOM      2  C   UNL     1      44.726  80.795  41.120  0.00  0.00    +0.044 C 
ATOM      3  C   UNL     1      46.089  81.004  41.718  0.00  0.00    +0.074 C 
ATOM      4  N   UNL     1      47.098  80.622  40.798  0.00  0.00    -0.273 NA
ATOM      5  C   UNL     1      47.111  79.229  40.510  0.00  0.00    +0.074 C 
ATOM      6  C   UNL     1      45.699  78.740  40.252  0.00  0.00    +0.044 C 
ATOM      7  C   UNL     1      44.839  79.896  39.895  0.00  0.00    +0.132 C 
ATOM      8  C   UNL     1      45.346  80.701  38.737  0.00  0.00    +0.259 C 
ATOM      9  O   UNL     1      46.463  80.781  38.214  0.00  0.00    -0.272 OA
ATOM     10  N   UNL     1      44.187  81.428  38.313  0.00  0.00    -0.182 NA
ATOM     11  C   UNL     1      42.987  80.817  38.911  0.00  0.00    +0.210 C 
ATOM     12  N   UNL     1      43.523  79.571  39.416  0.00  0.00    -0.284 N 
BRANCH  12  13
ATOM     13  C   UNL     1      42.877  78.337  39.443  0.00  0.00    +0.049 A 
ATOM     14  C   UNL     1      42.091  77.870  38.394  0.00  0.00    +0.015 A 
ATOM     15  C   UNL     1      41.482  76.653  38.438  0.00  0.00    +0.001 A 
ATOM     16  C   UNL     1      41.622  75.828  39.535  0.00  0.00    +0.000 A 
ATOM     17  C   UNL     1      42.392  76.263  40.584  0.00  0.00    +0.001 A 
ATOM     18  C   UNL     1      43.000  77.496  40.521  0.00  0.00    +0.015 A 
ENDBRANCH  12  13
ENDBRANCH   1   4
BRANCH   1  19
ATOM     19  C   UNL     1      48.925  81.080  42.291  0.00  0.00    +0.018 C 
BRANCH  19  20
ATOM     20  C   UNL     1      50.457  80.948  42.253  0.00  0.00    +0.010 C 
BRANCH  20  21
ATOM     21  C   UNL     1      51.009  82.222  42.770  0.00  0.00    +0.045 C 
BRANCH  21  22
ATOM     22  C   UNL     1      52.057  82.713  41.845  0.00  0.00    -0.018 A 
ATOM     23  C   UNL     1      51.724  83.445  40.731  0.00  0.00    -0.002 A 
ATOM     24  C   UNL     1      52.686  83.914  39.841  0.00  0.00    +0.029 A 
ATOM     25  C   UNL     1      54.020  83.650  40.059  0.00  0.00    +0.140 A 
ATOM     26  C   UNL     1      54.358  82.907  41.189  0.00  0.00    +0.029 A 
ATOM     27  C   UNL     1      53.407  82.448  42.062  0.00  0.00    -0.002 A 
ATOM     28  F   UNL     1      55.007  84.073  39.238  0.00  0.00    -0.204 F 
ENDBRANCH  21  22
BRANCH  21  29
ATOM     29  C   UNL     1      50.035  83.304  42.951  0.00  0.00    -0.018 A 
ATOM     30  C   UNL     1      48.839  83.351  42.258  0.00  0.00    -0.002 A 
ATOM     31  C   UNL     1      47.966  84.388  42.460  0.00  0.00    +0.029 A 
ATOM     32  C   UNL     1      48.298  85.387  43.365  0.00  0.00    +0.140 A 
ATOM     33  C   UNL     1      49.491  85.373  44.079  0.00  0.00    +0.029 A 
ATOM     34  C   UNL     1      50.356  84.312  43.855  0.00  0.00    -0.002 A 
ATOM     35  F   UNL     1      47.432  86.401  43.555  0.00  0.00    -0.204 F 
ENDBRANCH  21  29
ENDBRANCH  20  21
ENDBRANCH  19  20
ENDBRANCH   1  19
TORSDOF 7
