REMARK  Name = Flutrimazole
REMARK  4 active torsions:
REMARK  status: ('A' for Active; 'I' for Inactive)
REMARK    1  A    between atoms: C_4  and  C_7
REMARK    2  A    between atoms: C_7  and  C_8
REMARK    3  A    between atoms: C_7  and  C_15
REMARK    4  A    between atoms: C_7  and  N_22
REMARK                            x       y       z     vdW  Elec       q    Type
REMARK                         _______ _______ _______ _____ _____    ______ ____
ROOT
ATOM      1  C   UNL     1      47.970  81.608  41.218  0.00  0.00    +0.129 C 
ENDROOT
BRANCH   1   2
ATOM      2  C   UNL     1      49.392  81.874  40.977  0.00  0.00    +0.004 A 
ATOM      3  C   UNL     1      50.222  81.790  42.113  0.00  0.00    +0.000 A 
ATOM      4  C   UNL     1      51.553  82.014  42.048  0.00  0.00    +0.029 A 
ATOM      5  C   UNL     1      52.108  82.335  40.827  0.00  0.00    +0.140 A 
ATOM      6  C   UNL     1      51.309  82.422  39.702  0.00  0.00    +0.029 A 
ATOM      7  C   UNL     1      49.966  82.196  39.769  0.00  0.00    +0.000 A 
ATOM      8  F   UNL     1      53.443  82.554  40.788  0.00  0.00    -0.204 F 
ENDBRANCH   1   2
BRANCH   1   9
ATOM      9  C   UNL     1      47.585  82.404  42.405  0.00  0.00    +0.031 A 
ATOM     10  C   UNL     1      47.481  81.801  43.640  0.00  0.00    +0.000 A 
ATOM     11  C   UNL     1      47.089  82.584  44.706  0.00  0.00    -0.000 A 
ATOM     12  C   UNL     1      46.805  83.931  44.562  0.00  0.00    +0.002 A 
ATOM     13  C   UNL     1      46.925  84.501  43.290  0.00  0.00    +0.029 A 
ATOM     14  C   UNL     1      47.316  83.741  42.206  0.00  0.00    +0.138 A 
ATOM     15  F   UNL     1      47.437  84.380  40.999  0.00  0.00    -0.204 F 
ENDBRANCH   1   9
BRANCH   1  19
ATOM     16  C   UNL     1      47.427  77.416  41.758  0.00  0.00    -0.000 A 
ATOM     17  C   UNL     1      48.648  77.896  41.363  0.00  0.00    -0.000 A 
ATOM     18  C   UNL     1      48.777  79.276  41.193  0.00  0.00    -0.002 A 
ATOM     19  C   UNL     1      47.749  80.151  41.403  0.00  0.00    +0.004 A 
ATOM     20  C   UNL     1      46.534  79.643  41.800  0.00  0.00    -0.002 A 
ATOM     21  C   UNL     1      46.387  78.291  41.972  0.00  0.00    -0.000 A 
ENDBRANCH   1  19
BRANCH   1  22
ATOM     22  N   UNL     1      47.103  81.989  40.079  0.00  0.00    -0.301 N 
ATOM     23  C   UNL     1      45.835  81.682  39.836  0.00  0.00    +0.099 A 
ATOM     24  C   UNL     1      45.405  82.237  38.638  0.00  0.00    +0.119 A 
ATOM     25  N   UNL     1      46.454  82.897  38.151  0.00  0.00    -0.222 NA
ATOM     26  C   UNL     1      47.492  82.749  39.026  0.00  0.00    +0.179 A 
ENDBRANCH   1  22
TORSDOF 4
