REMARK  Name = Fluticasone
REMARK  3 active torsions:
REMARK  status: ('A' for Active; 'I' for Inactive)
REMARK    1  A    between atoms: C_19  and  C_20
REMARK    2  A    between atoms: C_20  and  S_22
REMARK    3  A    between atoms: S_22  and  C_23
REMARK                            x       y       z     vdW  Elec       q    Type
REMARK                         _______ _______ _______ _____ _____    ______ ____
ROOT
ATOM      1  C   UNL     1      47.678  83.837  44.411  0.00  0.00    +0.003 C 
ATOM      2  C   UNL     1      48.441  83.900  43.092  0.00  0.00    +0.036 C 
ATOM      3  C   UNL     1      47.515  83.684  41.915  0.00  0.00    +0.003 C 
ATOM      4  C   UNL     1      48.169  82.693  41.014  0.00  0.00    +0.006 C 
ATOM      5  C   UNL     1      47.233  81.773  40.299  0.00  0.00    +0.036 C 
ATOM      6  C   UNL     1      46.171  82.532  39.590  0.00  0.00    +0.042 C 
ATOM      7  C   UNL     1      45.343  81.590  38.718  0.00  0.00    +0.180 C 
ATOM      8  C   UNL     1      45.020  80.339  39.453  0.00  0.00    -0.003 C 
ATOM      9  C   UNL     1      43.806  79.871  39.321  0.00  0.00    +0.036 C 
ATOM     10  C   UNL     1      43.388  78.681  39.980  0.00  0.00    +0.195 C 
ATOM     11  O   UNL     1      42.196  78.246  39.833  0.00  0.00    -0.287 OA
ATOM     12  C   UNL     1      44.344  77.977  40.819  0.00  0.00    +0.038 C 
ATOM     13  C   UNL     1      45.573  78.465  40.946  0.00  0.00    -0.017 C 
ATOM     14  C   UNL     1      46.073  79.675  40.307  0.00  0.00    +0.066 C 
ATOM     15  C   UNL     1      46.559  80.765  41.207  0.00  0.00    +0.168 C 
ATOM     16  C   UNL     1      47.327  80.451  42.408  0.00  0.00    +0.182 C 
ATOM     17  C   UNL     1      48.843  80.611  42.249  0.00  0.00    +0.038 C 
ATOM     18  C   UNL     1      49.222  81.983  41.820  0.00  0.00    +0.036 C 
ATOM     19  C   UNL     1      49.520  82.848  43.012  0.00  0.00    +0.187 C 
ATOM     20  O   UNL     1      49.479  82.135  44.202  0.00  0.00    -0.217 OA
ATOM     21  C   UNL     1      50.534  81.854  41.032  0.00  0.00    +0.003 C 
ATOM     22  O   UNL     1      47.107  79.281  43.068  0.00  0.00    -0.220 OA
ATOM     23  F   UNL     1      45.376  81.411  41.637  0.00  0.00    -0.237 F 
ATOM     24  C   UNL     1      47.129  79.206  39.306  0.00  0.00    +0.011 C 
ATOM     25  F   UNL     1      45.867  81.407  37.475  0.00  0.00    -0.233 F 
ENDROOT
BRANCH  19  26
ATOM     26  C   UNL     1      50.852  83.515  42.900  0.00  0.00    +0.228 C 
ATOM     27  O   UNL     1      51.140  84.443  43.636  0.00  0.00    -0.282 OA
BRANCH  26  28
ATOM     28  S   UNL     1      52.045  82.973  41.692  0.00  0.00    -0.037 S 
BRANCH  28  29
ATOM     29  C   UNL     1      53.205  84.317  41.342  0.00  0.00    +0.258 C 
ATOM     30  F   UNL     1      54.107  83.975  40.368  0.00  0.00    -0.221 F 
ENDBRANCH  28  29
ENDBRANCH  26  28
ENDBRANCH  19  26
TORSDOF 3
