REMARK  Name = Fluvastatin
REMARK  8 active torsions:
REMARK  status: ('A' for Active; 'I' for Inactive)
REMARK    1  A    between atoms: C_2  and  N_4
REMARK    2  A    between atoms: C_11  and  C_24
REMARK    3  A    between atoms: C_12  and  C_13
REMARK    4  A    between atoms: C_14  and  C_15
REMARK    5  A    between atoms: C_15  and  C_16
REMARK    6  A    between atoms: C_16  and  C_17
REMARK    7  A    between atoms: C_17  and  C_18
REMARK    8  A    between atoms: C_18  and  C_19
REMARK                            x       y       z     vdW  Elec       q    Type
REMARK                         _______ _______ _______ _____ _____    ______ ____
ROOT
ATOM      1  N   UNL     1      47.246  79.850  41.609  0.00  0.00    -0.329 N 
ATOM      2  C   UNL     1      46.460  80.390  40.606  0.00  0.00    +0.060 A 
ATOM      3  C   UNL     1      45.533  79.883  39.725  0.00  0.00    +0.017 A 
ATOM      4  C   UNL     1      44.864  80.685  38.796  0.00  0.00    +0.001 A 
ATOM      5  C   UNL     1      45.130  82.025  38.750  0.00  0.00    +0.000 A 
ATOM      6  C   UNL     1      46.057  82.535  39.632  0.00  0.00    +0.001 A 
ATOM      7  C   UNL     1      46.714  81.725  40.548  0.00  0.00    +0.017 A 
ATOM      8  C   UNL     1      47.651  82.042  41.505  0.00  0.00    +0.017 A 
ATOM      9  C   UNL     1      47.956  80.835  42.149  0.00  0.00    +0.060 A 
ENDROOT
BRANCH   8  10
ATOM     10  C   UNL     1      48.161  83.388  41.724  0.00  0.00    +0.002 A 
ATOM     11  C   UNL     1      49.438  83.750  41.369  0.00  0.00    +0.002 A 
ATOM     12  C   UNL     1      49.933  85.020  41.582  0.00  0.00    +0.030 A 
ATOM     13  C   UNL     1      49.120  85.994  42.179  0.00  0.00    +0.140 A 
ATOM     14  C   UNL     1      47.857  85.651  42.532  0.00  0.00    +0.030 A 
ATOM     15  C   UNL     1      47.364  84.383  42.321  0.00  0.00    +0.002 A 
ATOM     16  F   UNL     1      49.594  87.262  42.395  0.00  0.00    -0.204 F 
ENDBRANCH   8  10
BRANCH   1  18
ATOM     17  C   UNL     1      45.842  78.037  42.352  0.00  0.00    +0.024 C 
ATOM     18  C   UNL     1      47.192  78.424  41.837  0.00  0.00    +0.086 C 
ATOM     19  C   UNL     1      47.796  77.564  40.823  0.00  0.00    +0.024 C 
ENDBRANCH   1  18
BRANCH   9  20
ATOM     20  C   UNL     1      48.833  80.748  43.336  0.00  0.00    +0.015 C 
ATOM     21  C   UNL     1      49.826  80.399  43.860  0.00  0.00    +0.008 C 
BRANCH  21  22
ATOM     22  C   UNL     1      50.702  80.703  45.008  0.00  0.00    +0.177 C 
ATOM     23  O   UNL     1      51.986  81.042  44.497  0.00  0.00    -0.218 OA
BRANCH  22  24
ATOM     24  C   UNL     1      50.770  79.469  45.878  0.00  0.00    +0.071 C 
BRANCH  24  25
ATOM     25  C   UNL     1      51.782  79.504  46.954  0.00  0.00    +0.166 C 
ATOM     26  O   UNL     1      51.542  80.667  47.712  0.00  0.00    -0.222 OA
BRANCH  25  27
ATOM     27  C   UNL     1      51.729  78.282  47.834  0.00  0.00    +0.147 C 
BRANCH  27  28
ATOM     28  C   UNL     1      52.827  78.300  48.874  0.00  0.00    +0.367 C 
ATOM     29  O   UNL     1      52.930  77.411  49.732  0.00  0.00    -0.246 OA
ATOM     30  O   UNL     1      53.725  79.364  48.827  0.00  0.00    -0.246 OA
ENDBRANCH  27  28
ENDBRANCH  25  27
ENDBRANCH  24  25
ENDBRANCH  22  24
ENDBRANCH  21  22
ENDBRANCH   9  20
TORSDOF 8
