REMARK  Name = Folic_Acid
REMARK  9 active torsions:
REMARK  status: ('A' for Active; 'I' for Inactive)
REMARK    1  A    between atoms: C_3  and  N_19
REMARK    2  A    between atoms: C_6  and  C_7
REMARK    3  A    between atoms: N_9  and  CA_10
REMARK    4  A    between atoms: CA_10  and  CB_11
REMARK    5  A    between atoms: CA_10  and  C_16
REMARK    6  A    between atoms: CB_11  and  CG_12
REMARK    7  A    between atoms: CG_12  and  CD_13
REMARK    8  A    between atoms: N_19  and  C_20
REMARK    9  A    between atoms: C_20  and  C_21
REMARK                            x       y       z     vdW  Elec       q    Type
REMARK                         _______ _______ _______ _____ _____    ______ ____
ROOT
ATOM      1  C   UNK A   0      49.836  83.999  44.012  0.00  0.00    +0.006 A 
ATOM      2  C   UNK A   0      48.751  83.543  43.255  0.00  0.00    +0.016 A 
ATOM      3  C   UNK A   0      48.883  82.460  42.413  0.00  0.00    +0.066 A 
ATOM      4  C   UNK A   0      50.123  81.855  42.354  0.00  0.00    +0.016 A 
ATOM      5  C   UNK A   0      51.197  82.299  43.097  0.00  0.00    +0.006 A 
ATOM      6  C   UNK A   0      51.067  83.392  43.948  0.00  0.00    +0.055 A 
ENDROOT
BRANCH   6   7
ATOM      7  C   UNK A   0      52.218  83.844  44.726  0.00  0.00    +0.265 C 
ATOM      8  O   UNK A   0      53.377  83.814  44.235  0.00  0.00    -0.268 OA
ATOM      9  N   GLU A   1      52.099  84.332  46.047  0.00  0.00    -0.192 NA
BRANCH   9  10
ATOM     10  CA  GLU A   1      53.243  84.868  46.787  0.00  0.00    +0.199 C 
BRANCH  10  11
ATOM     11  C   GLU A   1      53.189  86.351  46.837  0.00  0.00    +0.384 C 
ATOM     12  O   GLU A   1      52.071  86.895  46.654  0.00  0.00    -0.244 OA
ATOM     13  OXT GLU A   1      54.280  87.161  47.069  0.00  0.00    -0.244 OA
ENDBRANCH  10  11
BRANCH  10  14
ATOM     14  CB  GLU A   1      53.159  84.272  48.184  0.00  0.00    +0.045 C 
BRANCH  14  15
ATOM     15  CG  GLU A   1      53.316  82.758  48.013  0.00  0.00    +0.116 C 
BRANCH  15  16
ATOM     16  CD  GLU A   1      53.209  82.113  49.340  0.00  0.00    +0.365 C 
ATOM     17  OE1 GLU A   1      52.525  82.596  50.266  0.00  0.00    -0.246 OA
ATOM     18  OE2 GLU A   1      53.884  80.938  49.576  0.00  0.00    -0.246 OA
ENDBRANCH  15  16
ENDBRANCH  14  15
ENDBRANCH  10  14
ENDBRANCH   9  10
ENDBRANCH   6   7
BRANCH   3  19
ATOM     19  N   UNK A   0      47.783  81.985  41.634  0.00  0.00    -0.231 NA
BRANCH  19  20
ATOM     20  C   UNK A   0      47.899  80.825  40.776  0.00  0.00    +0.159 C 
BRANCH  20  21
ATOM     21  C   UNK A   0      46.653  80.583  40.009  0.00  0.00    +0.100 A 
ATOM     22  C   UNK A   0      46.243  81.409  38.975  0.00  0.00    +0.117 A 
ATOM     23  N   UNK A   0      45.095  81.152  38.298  0.00  0.00    -0.222 NA
ATOM     24  C   UNK A   0      44.328  80.082  38.620  0.00  0.00    +0.188 A 
ATOM     25  C   UNK A   0      44.743  79.272  39.644  0.00  0.00    +0.174 A 
ATOM     26  N   UNK A   0      45.893  79.539  40.314  0.00  0.00    -0.238 NA
ATOM     27  C   UNK A   0      43.961  78.184  39.969  0.00  0.00    +0.302 A 
ATOM     28  O   UNK A   0      44.367  77.452  40.919  0.00  0.00    -0.263 OA
ATOM     29  N   UNK A   0      42.834  77.951  39.288  0.00  0.00    -0.171 NA
ATOM     30  C   UNK A   0      42.408  78.734  38.279  0.00  0.00    +0.261 A 
ATOM     31  N   UNK A   0      43.193  79.795  37.979  0.00  0.00    -0.190 NA
ATOM     32  N   UNK A   0      41.209  78.454  37.582  0.00  0.00    -0.086 NA
ENDBRANCH  20  21
ENDBRANCH  19  20
ENDBRANCH   3  19
TORSDOF 9
