REMARK  Name = Forasartan
REMARK  10 active torsions:
REMARK  status: ('A' for Active; 'I' for Inactive)
REMARK    1  A    between atoms: C_2  and  C_3
REMARK    2  A    between atoms: C_3  and  C_4
REMARK    3  A    between atoms: C_4  and  C_5
REMARK    4  A    between atoms: N_7  and  C_14
REMARK    5  A    between atoms: C_8  and  C_10
REMARK    6  A    between atoms: C_10  and  C_11
REMARK    7  A    between atoms: C_11  and  C_12
REMARK    8  A    between atoms: C_14  and  C_15
REMARK    9  A    between atoms: C_18  and  C_21
REMARK   10  A    between atoms: C_26  and  C_27
REMARK                            x       y       z     vdW  Elec       q    Type
REMARK                         _______ _______ _______ _____ _____    ______ ____
ROOT
ATOM      1  C   UNL     1      47.421  80.478  42.719  0.00  0.00    +0.021 A 
ATOM      2  C   UNL     1      47.727  79.882  41.541  0.00  0.00    +0.096 A 
ATOM      3  N   UNL     1      46.766  79.334  40.768  0.00  0.00    -0.244 NA
ATOM      4  C   UNL     1      45.475  79.338  41.100  0.00  0.00    +0.081 A 
ATOM      5  C   UNL     1      45.142  79.945  42.305  0.00  0.00    +0.019 A 
ATOM      6  C   UNL     1      46.102  80.513  43.116  0.00  0.00    +0.001 A 
ENDROOT
BRANCH   4   7
ATOM      7  C   UNL     1      44.398  78.746  40.318  0.00  0.00    +0.021 A 
ATOM      8  C   UNL     1      43.942  77.456  40.621  0.00  0.00    +0.002 A 
ATOM      9  C   UNL     1      42.938  76.888  39.876  0.00  0.00    +0.000 A 
ATOM     10  C   UNL     1      42.344  77.551  38.814  0.00  0.00    +0.000 A 
ATOM     11  C   UNL     1      42.780  78.812  38.507  0.00  0.00    +0.003 A 
ATOM     12  C   UNL     1      43.807  79.397  39.268  0.00  0.00    +0.041 A 
BRANCH  12  13
ATOM     13  C   UNL     1      44.237  80.737  38.904  0.00  0.00    +0.208 A 
ATOM     14  N   UNL     1      44.075  81.358  37.722  0.00  0.00    -0.106 NA
ATOM     15  N   UNL     1      44.590  82.571  37.773  0.00  0.00    -0.021 NA
ATOM     16  N   UNL     1      45.083  82.733  38.986  0.00  0.00    -0.021 NA
ATOM     17  N   UNL     1      44.869  81.606  39.690  0.00  0.00    -0.106 NA
ENDBRANCH  12  13
ENDBRANCH   4   7
BRANCH   1  18
ATOM     18  C   UNL     1      48.413  81.102  43.642  0.00  0.00    +0.157 C 
BRANCH  18  21
ATOM     19  C   UNL     1      51.622  79.859  42.690  0.00  0.00    +0.160 A 
ATOM     20  N   UNL     1      50.405  79.747  43.239  0.00  0.00    -0.153 NA
ATOM     21  N   UNL     1      49.761  80.935  43.173  0.00  0.00    -0.232 N 
ATOM     22  C   UNL     1      50.560  81.820  42.581  0.00  0.00    +0.138 A 
ATOM     23  N   UNL     1      51.706  81.132  42.290  0.00  0.00    -0.215 NA
BRANCH  19  24
ATOM     24  C   UNL     1      52.676  78.816  42.536  0.00  0.00    +0.068 C 
BRANCH  24  25
ATOM     25  C   UNL     1      52.450  77.914  41.368  0.00  0.00    +0.008 C 
BRANCH  25  27
ATOM     26  C   UNL     1      52.642  75.507  40.733  0.00  0.00    +0.000 C 
ATOM     27  C   UNL     1      53.321  76.674  41.411  0.00  0.00    +0.000 C 
ENDBRANCH  25  27
ENDBRANCH  24  25
ENDBRANCH  19  24
BRANCH  22  28
ATOM     28  C   UNL     1      50.461  83.260  42.265  0.00  0.00    +0.065 C 
BRANCH  28  29
ATOM     29  C   UNL     1      49.915  84.138  43.314  0.00  0.00    +0.008 C 
BRANCH  29  30
ATOM     30  C   UNL     1      48.892  85.103  42.827  0.00  0.00    +0.000 C 
ATOM     31  C   UNL     1      47.483  84.639  43.090  0.00  0.00    +0.000 C 
ENDBRANCH  29  30
ENDBRANCH  28  29
ENDBRANCH  22  28
ENDBRANCH  18  21
ENDBRANCH   1  18
TORSDOF 10
