REMARK  Name = Formoterol
REMARK  8 active torsions:
REMARK  status: ('A' for Active; 'I' for Inactive)
REMARK    1  A    between atoms: C_2  and  C_3
REMARK    2  A    between atoms: C_2  and  N_12
REMARK    3  A    between atoms: C_3  and  C_4
REMARK    4  A    between atoms: C_7  and  O_10
REMARK    5  A    between atoms: N_12  and  C_13
REMARK    6  A    between atoms: C_13  and  C_14
REMARK    7  A    between atoms: C_14  and  C_15
REMARK    8  A    between atoms: C_17  and  N_22
REMARK                            x       y       z     vdW  Elec       q    Type
REMARK                         _______ _______ _______ _____ _____    ______ ____
ROOT
ATOM      1  C   UNL     1      46.972  81.069  39.843  0.00  0.00    +0.126 C 
ENDROOT
BRANCH   1   2
ATOM      2  C   UNL     1      45.574  81.491  39.554  0.00  0.00    +0.192 C 
ATOM      3  O   UNL     1      45.441  82.104  38.331  0.00  0.00    -0.217 OA
BRANCH   2   4
ATOM      4  C   UNL     1      44.735  80.224  39.556  0.00  0.00    +0.011 A 
ATOM      5  C   UNL     1      43.697  80.047  38.677  0.00  0.00    +0.018 A 
ATOM      6  C   UNL     1      42.962  78.859  38.715  0.00  0.00    +0.112 A 
ATOM      7  C   UNL     1      43.244  77.847  39.612  0.00  0.00    +0.211 A 
ATOM      8  C   UNL     1      44.288  78.039  40.488  0.00  0.00    +0.043 A 
ATOM      9  C   UNL     1      45.012  79.210  40.450  0.00  0.00    +0.002 A 
ATOM     10  O   UNL     1      42.481  76.669  39.619  0.00  0.00    -0.285 OA
BRANCH   6  11
ATOM     11  N   UNL     1      41.880  78.642  37.817  0.00  0.00    -0.168 NA
ATOM     12  C   UNL     1      41.087  77.473  37.893  0.00  0.00    +0.325 C 
ATOM     13  O   UNL     1      40.175  77.350  37.010  0.00  0.00    -0.263 OA
ENDBRANCH   6  11
ENDBRANCH   2   4
ENDBRANCH   1   2
BRANCH   1  14
ATOM     14  N   UNL     1      47.860  81.915  40.473  0.00  0.00    -0.216 NA
BRANCH  14  16
ATOM     15  C   UNL     1      46.168  82.502  42.001  0.00  0.00    +0.019 C 
ATOM     16  C   UNL     1      47.674  82.628  41.628  0.00  0.00    +0.077 C 
BRANCH  16  17
ATOM     17  C   UNL     1      48.478  82.337  42.858  0.00  0.00    +0.044 C 
BRANCH  17  18
ATOM     18  C   UNL     1      49.880  82.881  42.724  0.00  0.00    -0.021 A 
ATOM     19  C   UNL     1      50.757  82.309  41.801  0.00  0.00    -0.001 A 
ATOM     20  C   UNL     1      52.048  82.788  41.657  0.00  0.00    +0.037 A 
ATOM     21  C   UNL     1      52.487  83.830  42.415  0.00  0.00    +0.139 A 
ATOM     22  C   UNL     1      51.610  84.401  43.337  0.00  0.00    +0.037 A 
ATOM     23  C   UNL     1      50.315  83.915  43.477  0.00  0.00    -0.001 A 
BRANCH  21  24
ATOM     24  O   UNL     1      53.770  84.335  42.300  0.00  0.00    -0.471 OA
ATOM     25  C   UNL     1      54.802  83.697  41.611  0.00  0.00    +0.252 C 
ENDBRANCH  21  24
ENDBRANCH  17  18
ENDBRANCH  16  17
ENDBRANCH  14  16
ENDBRANCH   1  14
TORSDOF 8
