REMARK  Name = Fosamprenavir
REMARK  14 active torsions:
REMARK  status: ('A' for Active; 'I' for Inactive)
REMARK    1  A    between atoms: C_2  and  C_4
REMARK    2  A    between atoms: C_4  and  N_5
REMARK    3  A    between atoms: N_5  and  C_6
REMARK    4  A    between atoms: N_5  and  S_30
REMARK    5  A    between atoms: C_6  and  C_7
REMARK    6  A    between atoms: C_7  and  C_8
REMARK    7  A    between atoms: C_7  and  O_25
REMARK    8  A    between atoms: C_8  and  C_9
REMARK    9  A    between atoms: C_8  and  N_16
REMARK   10  A    between atoms: C_9  and  C_10
REMARK   11  A    between atoms: C_17  and  O_19
REMARK   12  A    between atoms: O_19  and  C_20
REMARK   13  A    between atoms: O_25  and  P_26
REMARK   14  A    between atoms: S_30  and  C_33
REMARK                            x       y       z     vdW  Elec       q    Type
REMARK                         _______ _______ _______ _____ _____    ______ ____
ROOT
ATOM      1  C   UNL     1      46.471  80.351  39.952  0.00  0.00    +0.164 C 
ENDROOT
BRANCH   1   2
ATOM      2  C   UNL     1      47.651  79.557  40.538  0.00  0.00    +0.128 C 
BRANCH   2   3
ATOM      3  N   UNL     1      48.224  80.130  41.727  0.00  0.00    -0.153 NA
BRANCH   3   4
ATOM      4  S   UNL     1      49.016  81.564  41.251  0.00  0.00    +0.063 S 
ATOM      5  O   UNL     1      50.452  81.298  40.843  0.00  0.00    -0.153 OA
ATOM      6  O   UNL     1      48.376  82.135  39.992  0.00  0.00    -0.153 OA
BRANCH   4   7
ATOM      7  C   UNL     1      49.060  82.838  42.414  0.00  0.00    +0.122 A 
ATOM      8  C   UNL     1      50.241  83.161  43.064  0.00  0.00    +0.021 A 
ATOM      9  C   UNL     1      50.258  84.184  44.008  0.00  0.00    +0.019 A 
ATOM     10  C   UNL     1      49.127  84.879  44.308  0.00  0.00    +0.089 A 
ATOM     11  C   UNL     1      47.954  84.556  43.660  0.00  0.00    +0.019 A 
ATOM     12  C   UNL     1      47.936  83.543  42.724  0.00  0.00    +0.021 A 
ATOM     13  N   UNL     1      49.178  85.911  45.271  0.00  0.00    -0.128 NA
ENDBRANCH   4   7
ENDBRANCH   3   4
BRANCH   3  14
ATOM     14  C   UNL     1      49.002  79.150  42.379  0.00  0.00    +0.096 C 
BRANCH  14  16
ATOM     15  C   UNL     1      50.257  76.932  42.336  0.00  0.00    +0.001 C 
ATOM     16  C   UNL     1      49.556  78.018  41.622  0.00  0.00    +0.018 C 
ATOM     17  C   UNL     1      50.430  78.613  40.502  0.00  0.00    +0.001 C 
ENDBRANCH  14  16
ENDBRANCH   3  14
ENDBRANCH   2   3
ENDBRANCH   1   2
BRANCH   1  18
ATOM     18  C   UNL     1      45.333  79.395  39.873  0.00  0.00    +0.132 C 
BRANCH  18  19
ATOM     19  N   UNL     1      45.167  78.660  41.132  0.00  0.00    -0.168 NA
ATOM     20  C   UNL     1      45.273  77.256  41.196  0.00  0.00    +0.421 C 
ATOM     21  O   UNL     1      45.719  76.577  40.240  0.00  0.00    -0.225 OA
BRANCH  20  22
ATOM     22  O   UNL     1      44.877  76.601  42.343  0.00  0.00    -0.435 OA
BRANCH  22  23
ATOM     23  C   UNL     1      44.904  75.208  42.499  0.00  0.00    +0.202 C 
ATOM     24  C   UNL     1      46.340  74.810  42.785  0.00  0.00    +0.078 C 
ATOM     25  C   UNL     1      46.158  73.618  43.667  0.00  0.00    +0.146 C 
ATOM     26  O   UNL     1      44.898  73.613  44.194  0.00  0.00    -0.350 OA
ATOM     27  C   UNL     1      44.213  74.727  43.754  0.00  0.00    +0.186 C 
ENDBRANCH  22  23
ENDBRANCH  20  22
ENDBRANCH  18  19
BRANCH  18  28
ATOM     28  C   UNL     1      44.017  79.897  39.475  0.00  0.00    +0.051 C 
BRANCH  28  29
ATOM     29  C   UNL     1      42.992  78.930  39.048  0.00  0.00    -0.020 A 
ATOM     30  C   UNL     1      42.426  78.030  39.901  0.00  0.00    -0.004 A 
ATOM     31  C   UNL     1      41.464  77.151  39.476  0.00  0.00    -0.000 A 
ATOM     32  C   UNL     1      41.063  77.177  38.167  0.00  0.00    -0.000 A 
ATOM     33  C   UNL     1      41.602  78.064  37.267  0.00  0.00    -0.000 A 
ATOM     34  C   UNL     1      42.555  78.926  37.715  0.00  0.00    -0.004 A 
ENDBRANCH  28  29
ENDBRANCH  18  28
ENDBRANCH   1  18
BRANCH   1  35
ATOM     35  O   UNL     1      46.830  80.801  38.698  0.00  0.00    -0.269 OA
BRANCH  35  36
ATOM     36  P   UNL     1      46.306  82.412  38.471  0.00  0.00    +0.533 P 
ATOM     37  O   UNL     1      46.912  82.888  37.173  0.00  0.00    -0.222 OA
ATOM     38  O   UNL     1      44.612  82.419  38.261  0.00  0.00    -0.115 OA
ATOM     39  O   UNL     1      46.682  83.415  39.742  0.00  0.00    -0.115 OA
ENDBRANCH  35  36
ENDBRANCH   1  35
TORSDOF 14
