REMARK  Name = Fosdenopterin
REMARK  0 active torsions:
REMARK  status: ('A' for Active; 'I' for Inactive)
REMARK                            x       y       z     vdW  Elec       q    Type
REMARK                         _______ _______ _______ _____ _____    ______ ____
ROOT
ATOM      1  C   UNL     1      50.464  80.694  42.794  0.00  0.00    +0.186 C 
ATOM      2  C   UNL     1      49.185  81.420  43.028  0.00  0.00    +0.182 C 
ATOM      3  C   UNL     1      49.245  82.886  42.724  0.00  0.00    +0.241 C 
ATOM      4  C   UNL     1      47.883  83.505  42.831  0.00  0.00    +0.400 C 
ATOM      5  C   UNL     1      46.786  82.642  42.299  0.00  0.00    +0.227 C 
ATOM      6  C   UNL     1      46.969  81.245  42.907  0.00  0.00    +0.238 C 
ATOM      7  O   UNL     1      48.157  80.769  42.349  0.00  0.00    -0.332 OA
ATOM      8  N   UNL     1      45.894  80.386  42.460  0.00  0.00    -0.189 NA
ATOM      9  C   UNL     1      45.721  80.289  41.031  0.00  0.00    +0.172 A 
ATOM     10  C   UNL     1      46.213  81.335  40.274  0.00  0.00    +0.157 A 
ATOM     11  N   UNL     1      46.861  82.458  40.863  0.00  0.00    -0.220 NA
ATOM     12  C   UNL     1      46.043  81.234  38.897  0.00  0.00    +0.299 A 
ATOM     13  O   UNL     1      46.477  82.166  38.167  0.00  0.00    -0.264 OA
ATOM     14  N   UNL     1      45.428  80.156  38.401  0.00  0.00    -0.171 NA
ATOM     15  C   UNL     1      44.951  79.142  39.142  0.00  0.00    +0.260 A 
ATOM     16  N   UNL     1      45.112  79.231  40.475  0.00  0.00    -0.193 NA
ATOM     17  N   UNL     1      44.301  78.012  38.560  0.00  0.00    -0.086 NA
ATOM     18  O   UNL     1      47.894  84.688  42.065  0.00  0.00    -0.271 OA
ATOM     19  O   UNL     1      47.563  83.895  44.130  0.00  0.00    -0.271 OA
ATOM     20  O   UNL     1      49.779  83.198  41.503  0.00  0.00    -0.264 OA
ATOM     21  P   UNL     1      51.229  82.416  41.175  0.00  0.00    +0.506 P 
ATOM     22  O   UNL     1      51.614  82.628  39.748  0.00  0.00    -0.225 OA
ATOM     23  O   UNL     1      50.950  80.762  41.517  0.00  0.00    -0.269 OA
ATOM     24  O   UNL     1      52.461  82.922  42.246  0.00  0.00    -0.116 OA
ENDROOT
TORSDOF 0
