REMARK  Name = Fosfestrol
REMARK  8 active torsions:
REMARK  status: ('A' for Active; 'I' for Inactive)
REMARK    1  A    between atoms: C_2  and  C_3
REMARK    2  A    between atoms: C_3  and  C_18
REMARK    3  A    between atoms: C_4  and  C_5
REMARK    4  A    between atoms: C_4  and  C_7
REMARK    5  A    between atoms: C_10  and  O_13
REMARK    6  A    between atoms: O_13  and  P_14
REMARK    7  A    between atoms: C_21  and  O_24
REMARK    8  A    between atoms: O_24  and  P_25
REMARK                            x       y       z     vdW  Elec       q    Type
REMARK                         _______ _______ _______ _____ _____    ______ ____
ROOT
ATOM      1  C   UNL     1      44.663  79.865  39.492  0.00  0.00    -0.026 C 
ATOM      2  C   UNL     1      45.696  80.656  39.510  0.00  0.00    -0.026 C 
ENDROOT
BRANCH   2   3
ATOM      3  C   UNL     1      46.684  80.767  40.579  0.00  0.00    -0.004 A 
ATOM      4  C   UNL     1      46.373  80.956  41.893  0.00  0.00    +0.003 A 
ATOM      5  C   UNL     1      47.386  81.136  42.854  0.00  0.00    +0.037 A 
ATOM      6  C   UNL     1      48.714  81.126  42.503  0.00  0.00    +0.149 A 
ATOM      7  C   UNL     1      49.022  80.934  41.172  0.00  0.00    +0.037 A 
ATOM      8  C   UNL     1      48.040  80.757  40.226  0.00  0.00    +0.003 A 
BRANCH   6   9
ATOM      9  O   UNL     1      49.724  81.306  43.464  0.00  0.00    -0.400 OA
BRANCH   9  10
ATOM     10  P   UNL     1      51.339  81.255  42.888  0.00  0.00    +0.589 P 
ATOM     11  O   UNL     1      52.328  81.374  44.045  0.00  0.00    -0.211 OA
ATOM     12  O   UNL     1      51.566  79.790  42.108  0.00  0.00    -0.104 OA
ATOM     13  O   UNL     1      51.546  82.564  41.812  0.00  0.00    -0.104 OA
ENDBRANCH   9  10
ENDBRANCH   6   9
ENDBRANCH   2   3
BRANCH   1  14
ATOM     14  C   UNL     1      44.681  78.719  40.467  0.00  0.00    -0.004 A 
ATOM     15  C   UNL     1      43.948  78.712  41.614  0.00  0.00    +0.003 A 
ATOM     16  C   UNL     1      44.024  77.629  42.452  0.00  0.00    +0.037 A 
ATOM     17  C   UNL     1      44.857  76.566  42.097  0.00  0.00    +0.149 A 
ATOM     18  C   UNL     1      45.601  76.567  40.940  0.00  0.00    +0.037 A 
ATOM     19  C   UNL     1      45.510  77.675  40.101  0.00  0.00    +0.003 A 
BRANCH  17  20
ATOM     20  O   UNL     1      44.935  75.457  42.956  0.00  0.00    -0.400 OA
BRANCH  20  21
ATOM     21  P   UNL     1      43.535  74.457  43.127  0.00  0.00    +0.589 P 
ATOM     22  O   UNL     1      42.512  75.140  44.014  0.00  0.00    -0.211 OA
ATOM     23  O   UNL     1      42.823  74.233  41.622  0.00  0.00    -0.104 OA
ATOM     24  O   UNL     1      44.012  72.969  43.760  0.00  0.00    -0.104 OA
ENDBRANCH  20  21
ENDBRANCH  17  20
ENDBRANCH   1  14
BRANCH   1  26
ATOM     25  C   UNL     1      42.637  78.758  38.423  0.00  0.00    +0.005 C 
ATOM     26  C   UNL     1      43.420  79.962  38.731  0.00  0.00    +0.026 C 
ENDBRANCH   1  26
BRANCH   2  27
ATOM     27  C   UNL     1      46.053  81.472  38.292  0.00  0.00    +0.026 C 
ATOM     28  C   UNL     1      46.198  82.950  38.616  0.00  0.00    +0.005 C 
ENDBRANCH   2  27
TORSDOF 8
