REMARK  Name = Fosinopril
REMARK  15 active torsions:
REMARK  status: ('A' for Active; 'I' for Inactive)
REMARK    1  A    between atoms: C_2  and  C_3
REMARK    2  A    between atoms: C_3  and  O_5
REMARK    3  A    between atoms: O_5  and  C_6
REMARK    4  A    between atoms: C_6  and  C_7
REMARK    5  A    between atoms: C_6  and  O_10
REMARK    6  A    between atoms: O_10  and  P_11
REMARK    7  A    between atoms: P_11  and  C_13
REMARK    8  A    between atoms: P_11  and  C_23
REMARK    9  A    between atoms: C_13  and  C_14
REMARK   10  A    between atoms: C_14  and  C_15
REMARK   11  A    between atoms: C_15  and  C_16
REMARK   12  A    between atoms: C_16  and  C_17
REMARK   13  A    between atoms: C_23  and  C_24
REMARK   14  A    between atoms: C_28  and  C_34
REMARK   15  A    between atoms: C_30  and  C_31
REMARK                            x       y       z     vdW  Elec       q    Type
REMARK                         _______ _______ _______ _____ _____    ______ ____
ROOT
ATOM      1  P   UNL     1      44.559  78.334  40.542  0.00  0.00    +0.234 P 
ATOM      2  O   UNL     1      45.580  77.564  39.701  0.00  0.00    -0.289 OA
ENDROOT
BRANCH   1   3
ATOM      3  O   UNL     1      44.230  77.521  41.959  0.00  0.00    -0.276 OA
BRANCH   3   4
ATOM      4  C   UNL     1      44.463  76.182  41.996  0.00  0.00    +0.295 C 
BRANCH   4   5
ATOM      5  C   UNL     1      44.326  75.732  43.453  0.00  0.00    +0.071 C 
ATOM      6  C   UNL     1      44.484  74.249  43.612  0.00  0.00    +0.006 C 
ATOM      7  C   UNL     1      45.407  76.397  44.316  0.00  0.00    +0.006 C 
ENDBRANCH   4   5
BRANCH   4   8
ATOM      8  O   UNL     1      43.334  75.570  41.336  0.00  0.00    -0.424 OA
BRANCH   8   9
ATOM      9  C   UNL     1      43.481  74.575  40.389  0.00  0.00    +0.319 C 
ATOM     10  O   UNL     1      44.574  74.392  39.832  0.00  0.00    -0.250 OA
BRANCH   9  12
ATOM     11  C   UNL     1      41.009  74.478  40.382  0.00  0.00    +0.012 C 
ATOM     12  C   UNL     1      42.279  73.740  40.070  0.00  0.00    +0.110 C 
ENDBRANCH   9  12
ENDBRANCH   8   9
ENDBRANCH   4   8
ENDBRANCH   3   4
ENDBRANCH   1   3
BRANCH   1  13
ATOM     13  C   UNL     1      43.046  78.631  39.639  0.00  0.00    +0.088 C 
BRANCH  13  14
ATOM     14  C   UNL     1      42.996  78.350  38.200  0.00  0.00    +0.011 C 
BRANCH  14  15
ATOM     15  C   UNL     1      41.900  77.532  37.651  0.00  0.00    +0.005 C 
BRANCH  15  16
ATOM     16  C   UNL     1      40.600  77.445  38.365  0.00  0.00    +0.026 C 
BRANCH  16  17
ATOM     17  C   UNL     1      39.565  77.127  37.304  0.00  0.00    -0.022 A 
ATOM     18  C   UNL     1      39.804  77.351  35.979  0.00  0.00    -0.004 A 
ATOM     19  C   UNL     1      38.843  77.050  35.035  0.00  0.00    -0.000 A 
ATOM     20  C   UNL     1      37.630  76.520  35.421  0.00  0.00    -0.000 A 
ATOM     21  C   UNL     1      37.402  76.299  36.756  0.00  0.00    -0.000 A 
ATOM     22  C   UNL     1      38.376  76.604  37.713  0.00  0.00    -0.004 A 
ENDBRANCH  16  17
ENDBRANCH  15  16
ENDBRANCH  14  15
ENDBRANCH  13  14
ENDBRANCH   1  13
BRANCH   1  23
ATOM     23  C   UNL     1      45.355  79.965  40.930  0.00  0.00    +0.172 C 
BRANCH  23  24
ATOM     24  C   UNL     1      46.801  79.927  40.699  0.00  0.00    +0.236 C 
ATOM     25  O   UNL     1      47.205  78.993  39.917  0.00  0.00    -0.274 OA
ATOM     26  N   UNL     1      47.782  80.788  41.233  0.00  0.00    -0.271 N 
ATOM     27  C   UNL     1      47.586  81.875  42.190  0.00  0.00    +0.094 C 
ATOM     28  C   UNL     1      48.410  82.978  41.569  0.00  0.00    +0.022 C 
ATOM     29  C   UNL     1      49.461  82.290  40.768  0.00  0.00    +0.033 C 
ATOM     30  C   UNL     1      49.179  80.786  40.921  0.00  0.00    +0.179 C 
BRANCH  28  31
ATOM     31  C   UNL     1      48.951  83.969  42.566  0.00  0.00    +0.002 C 
ATOM     32  C   UNL     1      49.783  83.294  43.637  0.00  0.00    +0.000 C 
ATOM     33  C   UNL     1      50.133  84.298  44.700  0.00  0.00    +0.000 C 
ATOM     34  C   UNL     1      50.004  85.731  44.237  0.00  0.00    +0.000 C 
ATOM     35  C   UNL     1      48.573  86.015  43.861  0.00  0.00    +0.000 C 
ATOM     36  C   UNL     1      47.905  84.775  43.267  0.00  0.00    +0.000 C 
ENDBRANCH  28  31
BRANCH  30  37
ATOM     37  C   UNL     1      49.960  80.265  42.046  0.00  0.00    +0.382 C 
ATOM     38  O   UNL     1      51.223  80.150  41.987  0.00  0.00    -0.244 OA
ATOM     39  O   UNL     1      49.361  79.874  43.224  0.00  0.00    -0.244 OA
ENDBRANCH  30  37
ENDBRANCH  23  24
ENDBRANCH   1  23
TORSDOF 15
