REMARK  Name = Fosmidomycin
REMARK  4 active torsions:
REMARK  status: ('A' for Active; 'I' for Inactive)
REMARK    1  A    between atoms: C_1  and  C_2
REMARK    2  A    between atoms: C_1  and  C_7
REMARK    3  A    between atoms: C_2  and  N_3
REMARK    4  A    between atoms: C_7  and  P_8
REMARK                            x       y       z     vdW  Elec       q    Type
REMARK                         _______ _______ _______ _____ _____    ______ ____
ROOT
ATOM      1  C   UNL     1      45.222  78.438  40.658  0.00  0.00    +0.037 C 
ENDROOT
BRANCH   1   2
ATOM      2  C   UNL     1      44.490  79.751  40.433  0.00  0.00    +0.128 C 
BRANCH   2   3
ATOM      3  N   UNL     1      45.363  80.687  39.747  0.00  0.00    -0.128 N 
ATOM      4  C   UNL     1      45.019  81.307  38.528  0.00  0.00    +0.329 C 
ATOM      5  O   UNL     1      45.717  82.263  38.116  0.00  0.00    -0.263 OA
ATOM      6  O   UNL     1      46.562  80.958  40.331  0.00  0.00    -0.092 OA
ENDBRANCH   2   3
ENDBRANCH   1   2
BRANCH   1   7
ATOM      7  C   UNL     1      44.375  77.429  41.355  0.00  0.00    +0.122 C 
BRANCH   7   8
ATOM      8  P   UNL     1      45.165  75.845  41.594  0.00  0.00    +0.395 P 
ATOM      9  O   UNL     1      45.852  75.327  40.359  0.00  0.00    -0.253 OA
ATOM     10  O   UNL     1      43.969  74.719  42.048  0.00  0.00    -0.138 OA
ATOM     11  O   UNL     1      46.256  75.921  42.906  0.00  0.00    -0.138 OA
ENDBRANCH   7   8
ENDBRANCH   1   7
TORSDOF 4
