REMARK  Name = Fostamatinib
REMARK  7 active torsions:
REMARK  status: ('A' for Active; 'I' for Inactive)
REMARK    1  A    between atoms: N_5  and  C_34
REMARK    2  A    between atoms: N_21  and  C_22
REMARK    3  A    between atoms: C_24  and  O_32
REMARK    4  A    between atoms: C_25  and  O_30
REMARK    5  A    between atoms: C_26  and  O_28
REMARK    6  A    between atoms: C_34  and  O_35
REMARK    7  A    between atoms: O_35  and  P_36
REMARK                            x       y       z     vdW  Elec       q    Type
REMARK                         _______ _______ _______ _____ _____    ______ ____
ROOT
ATOM      1  C   UNL     1      50.842  85.642  43.916  0.00  0.00    +0.053 C 
ATOM      2  C   UNL     1      50.849  84.511  44.929  0.00  0.00    +0.201 C 
ATOM      3  C   UNL     1      51.506  83.346  44.295  0.00  0.00    +0.268 C 
ATOM      4  O   UNL     1      52.672  83.041  44.639  0.00  0.00    -0.271 OA
ATOM      5  N   UNL     1      50.815  82.586  43.307  0.00  0.00    -0.211 N 
ATOM      6  C   UNL     1      49.369  82.611  43.250  0.00  0.00    +0.175 A 
ATOM      7  C   UNL     1      48.766  83.408  44.205  0.00  0.00    +0.171 A 
ATOM      8  O   UNL     1      49.489  84.127  45.141  0.00  0.00    -0.471 OA
ATOM      9  C   UNL     1      47.387  83.448  44.176  0.00  0.00    +0.043 A 
ATOM     10  C   UNL     1      46.700  82.723  43.237  0.00  0.00    +0.039 A 
ATOM     11  C   UNL     1      47.343  81.917  42.272  0.00  0.00    +0.155 A 
ATOM     12  N   UNL     1      48.681  81.912  42.342  0.00  0.00    -0.211 NA
ATOM     13  N   UNL     1      46.546  81.183  41.378  0.00  0.00    -0.173 NA
ATOM     14  C   UNL     1      46.212  81.469  40.047  0.00  0.00    +0.185 A 
ATOM     15  N   UNL     1      45.471  80.562  39.367  0.00  0.00    -0.193 NA
ATOM     16  C   UNL     1      45.030  80.677  38.128  0.00  0.00    +0.242 A 
ATOM     17  N   UNL     1      45.341  81.816  37.445  0.00  0.00    -0.208 NA
ATOM     18  C   UNL     1      46.072  82.753  38.062  0.00  0.00    +0.134 A 
ATOM     19  C   UNL     1      46.532  82.614  39.380  0.00  0.00    +0.192 A 
ATOM     20  F   UNL     1      47.243  83.592  39.966  0.00  0.00    -0.199 F 
ATOM     21  N   UNL     1      44.273  79.646  37.528  0.00  0.00    -0.177 NA
ATOM     22  C   UNL     1      51.449  84.915  46.240  0.00  0.00    +0.053 C 
ENDROOT
BRANCH  21  23
ATOM     23  C   UNL     1      43.501  78.742  38.303  0.00  0.00    +0.080 A 
ATOM     24  C   UNL     1      42.325  78.205  37.803  0.00  0.00    +0.057 A 
ATOM     25  C   UNL     1      41.569  77.316  38.520  0.00  0.00    +0.177 A 
ATOM     26  C   UNL     1      41.981  76.923  39.800  0.00  0.00    +0.206 A 
ATOM     27  C   UNL     1      43.144  77.454  40.295  0.00  0.00    +0.177 A 
ATOM     28  C   UNL     1      43.900  78.352  39.564  0.00  0.00    +0.057 A 
BRANCH  27  29
ATOM     29  O   UNL     1      43.514  77.027  41.580  0.00  0.00    -0.468 OA
ATOM     30  C   UNL     1      44.777  77.472  42.051  0.00  0.00    +0.253 C 
ENDBRANCH  27  29
BRANCH  26  31
ATOM     31  O   UNL     1      41.221  76.029  40.516  0.00  0.00    -0.465 OA
ATOM     32  C   UNL     1      41.330  74.657  40.098  0.00  0.00    +0.253 C 
ENDBRANCH  26  31
BRANCH  25  33
ATOM     33  O   UNL     1      40.401  76.761  38.070  0.00  0.00    -0.468 OA
ATOM     34  C   UNL     1      39.872  76.981  36.812  0.00  0.00    +0.253 C 
ENDBRANCH  25  33
ENDBRANCH  21  23
BRANCH   5  35
ATOM     35  C   UNL     1      51.558  81.795  42.382  0.00  0.00    +0.258 C 
BRANCH  35  36
ATOM     36  O   UNL     1      51.783  80.543  43.003  0.00  0.00    -0.248 OA
BRANCH  36  37
ATOM     37  P   UNL     1      52.683  79.531  41.999  0.00  0.00    +0.534 P 
ATOM     38  O   UNL     1      52.471  80.027  40.575  0.00  0.00    -0.222 OA
ATOM     39  O   UNL     1      52.136  77.938  42.061  0.00  0.00    -0.115 OA
ATOM     40  O   UNL     1      54.322  79.527  42.358  0.00  0.00    -0.115 OA
ENDBRANCH  36  37
ENDBRANCH  35  36
ENDBRANCH   5  35
TORSDOF 7
