REMARK  Name = Fostemsavir
REMARK  7 active torsions:
REMARK  status: ('A' for Active; 'I' for Inactive)
REMARK    1  A    between atoms: C_10  and  O_40
REMARK    2  A    between atoms: N_13  and  C_34
REMARK    3  A    between atoms: C_15  and  C_16
REMARK    4  A    between atoms: C_16  and  C_18
REMARK    5  A    between atoms: C_26  and  C_28
REMARK    6  A    between atoms: C_34  and  O_35
REMARK    7  A    between atoms: O_35  and  P_36
REMARK                            x       y       z     vdW  Elec       q    Type
REMARK                         _______ _______ _______ _____ _____    ______ ____
ROOT
ATOM      1  C   UNL     1      40.279  77.601  37.130  0.00  0.00    +0.076 C 
ATOM      2  C   UNL     1      41.442  77.966  37.986  0.00  0.00    +0.161 A 
ATOM      3  N   UNL     1      42.268  79.025  37.869  0.00  0.00    -0.147 NA
ATOM      4  N   UNL     1      43.178  79.002  38.816  0.00  0.00    -0.189 N 
ATOM      5  C   UNL     1      42.927  77.902  39.555  0.00  0.00    +0.203 A 
ATOM      6  N   UNL     1      41.854  77.253  39.050  0.00  0.00    -0.207 NA
ATOM      7  C   UNL     1      44.247  79.892  39.056  0.00  0.00    +0.182 A 
ATOM      8  N   UNL     1      44.456  80.921  38.173  0.00  0.00    -0.221 NA
ATOM      9  C   UNL     1      45.464  81.762  38.382  0.00  0.00    +0.137 A 
ATOM     10  C   UNL     1      46.319  81.644  39.462  0.00  0.00    +0.159 A 
ATOM     11  C   UNL     1      46.119  80.609  40.371  0.00  0.00    +0.059 A 
ATOM     12  C   UNL     1      45.065  79.728  40.146  0.00  0.00    +0.101 A 
ATOM     13  N   UNL     1      45.074  78.790  41.084  0.00  0.00    -0.297 N 
ATOM     14  C   UNL     1      46.098  79.052  41.895  0.00  0.00    +0.081 A 
ATOM     15  C   UNL     1      46.788  80.208  41.479  0.00  0.00    +0.065 A 
ENDROOT
BRANCH  15  16
ATOM     16  C   UNL     1      47.795  80.837  42.288  0.00  0.00    +0.250 C 
ATOM     17  O   UNL     1      48.638  79.956  42.811  0.00  0.00    -0.282 OA
BRANCH  16  18
ATOM     18  C   UNL     1      48.074  82.173  42.651  0.00  0.00    +0.288 C 
ATOM     19  O   UNL     1      47.262  83.107  42.511  0.00  0.00    -0.266 OA
ATOM     20  N   UNL     1      49.341  82.575  43.222  0.00  0.00    -0.270 N 
ATOM     21  C   UNL     1      49.540  83.910  43.690  0.00  0.00    +0.115 C 
ATOM     22  C   UNL     1      50.822  84.041  44.456  0.00  0.00    +0.115 C 
ATOM     23  N   UNL     1      51.951  83.406  43.843  0.00  0.00    -0.273 N 
ATOM     24  C   UNL     1      51.734  82.287  42.922  0.00  0.00    +0.115 C 
ATOM     25  C   UNL     1      50.410  81.607  43.306  0.00  0.00    +0.115 C 
ATOM     26  C   UNL     1      53.263  83.838  44.119  0.00  0.00    +0.249 C 
ATOM     27  O   UNL     1      54.232  83.344  43.477  0.00  0.00    -0.270 OA
BRANCH  26  28
ATOM     28  C   UNL     1      53.594  84.839  45.112  0.00  0.00    +0.054 A 
ATOM     29  C   UNL     1      54.041  84.443  46.358  0.00  0.00    +0.005 A 
ATOM     30  C   UNL     1      54.372  85.353  47.340  0.00  0.00    +0.000 A 
ATOM     31  C   UNL     1      54.246  86.695  47.055  0.00  0.00    +0.000 A 
ATOM     32  C   UNL     1      53.799  87.130  45.815  0.00  0.00    +0.000 A 
ATOM     33  C   UNL     1      53.474  86.179  44.846  0.00  0.00    +0.005 A 
ENDBRANCH  26  28
ENDBRANCH  16  18
ENDBRANCH  15  16
BRANCH  10  34
ATOM     34  O   UNL     1      47.366  82.525  39.637  0.00  0.00    -0.470 OA
ATOM     35  C   UNL     1      47.668  83.450  38.627  0.00  0.00    +0.253 C 
ENDBRANCH  10  34
BRANCH  13  36
ATOM     36  C   UNL     1      44.212  77.650  41.312  0.00  0.00    +0.265 C 
BRANCH  36  37
ATOM     37  O   UNL     1      44.874  76.612  41.977  0.00  0.00    -0.246 OA
BRANCH  37  38
ATOM     38  P   UNL     1      43.846  75.307  42.260  0.00  0.00    +0.534 P 
ATOM     39  O   UNL     1      42.759  75.723  43.251  0.00  0.00    -0.222 OA
ATOM     40  O   UNL     1      44.672  73.996  42.939  0.00  0.00    -0.114 OA
ATOM     41  O   UNL     1      43.085  74.786  40.864  0.00  0.00    -0.114 OA
ENDBRANCH  37  38
ENDBRANCH  36  37
ENDBRANCH  13  36
TORSDOF 7
