REMARK  Name = Fotemustine
REMARK  9 active torsions:
REMARK  status: ('A' for Active; 'I' for Inactive)
REMARK    1  A    between atoms: C_2  and  O_3
REMARK    2  A    between atoms: O_3  and  P_4
REMARK    3  A    between atoms: P_4  and  C_6
REMARK    4  A    between atoms: P_4  and  O_17
REMARK    5  A    between atoms: C_6  and  N_8
REMARK    6  A    between atoms: N_11  and  C_12
REMARK    7  A    between atoms: N_11  and  N_15
REMARK    8  A    between atoms: C_12  and  C_13
REMARK    9  A    between atoms: O_17  and  C_18
REMARK                            x       y       z     vdW  Elec       q    Type
REMARK                         _______ _______ _______ _____ _____    ______ ____
ROOT
ATOM      1  C   UNL     1      45.558  77.914  40.865  0.00  0.00    +0.200 C 
ATOM      2  C   UNL     1      46.167  76.706  40.169  0.00  0.00    +0.037 C 
ENDROOT
BRANCH   1   3
ATOM      3  N   UNL     1      45.873  79.066  40.051  0.00  0.00    -0.176 NA
ATOM      4  C   UNL     1      46.313  80.255  40.687  0.00  0.00    +0.345 C 
ATOM      5  O   UNL     1      46.621  80.229  41.908  0.00  0.00    -0.249 OA
ATOM      6  N   UNL     1      46.422  81.489  39.992  0.00  0.00    -0.127 N 
BRANCH   6   7
ATOM      7  N   UNL     1      45.724  81.653  38.795  0.00  0.00    +0.053 NA
ATOM      8  O   UNL     1      45.558  82.798  38.343  0.00  0.00    -0.126 OA
ENDBRANCH   6   7
BRANCH   6   9
ATOM      9  C   UNL     1      47.231  82.556  40.498  0.00  0.00    +0.141 C 
BRANCH   9  10
ATOM     10  C   UNL     1      48.719  82.199  40.431  0.00  0.00    +0.119 C 
ATOM     11 CL   UNL     1      49.686  83.511  41.110  0.00  0.00    -0.112 Cl
ENDBRANCH   9  10
ENDBRANCH   6   9
ENDBRANCH   1   3
BRANCH   1  12
ATOM     12  P   UNL     1      43.741  77.674  40.943  0.00  0.00    +0.363 P 
ATOM     13  O   UNL     1      43.089  78.913  41.502  0.00  0.00    -0.256 OA
BRANCH  12  14
ATOM     14  O   UNL     1      43.354  76.284  41.726  0.00  0.00    -0.293 OA
BRANCH  14  16
ATOM     15  C   UNL     1      43.675  74.935  43.711  0.00  0.00    +0.035 C 
ATOM     16  C   UNL     1      43.486  76.257  43.081  0.00  0.00    +0.151 C 
ENDBRANCH  14  16
ENDBRANCH  12  14
BRANCH  12  17
ATOM     17  O   UNL     1      43.228  77.533  39.334  0.00  0.00    -0.293 OA
BRANCH  17  18
ATOM     18  C   UNL     1      42.009  78.169  39.125  0.00  0.00    +0.151 C 
ATOM     19  C   UNL     1      41.628  77.918  37.681  0.00  0.00    +0.035 C 
ENDBRANCH  17  18
ENDBRANCH  12  17
ENDBRANCH   1  12
TORSDOF 9
