REMARK  Name = Framycetin
REMARK  9 active torsions:
REMARK  status: ('A' for Active; 'I' for Inactive)
REMARK    1  A    between atoms: C_4  and  O_20
REMARK    2  A    between atoms: C_5  and  O_8
REMARK    3  A    between atoms: O_8  and  C_9
REMARK    4  A    between atoms: C_13  and  C_15
REMARK    5  A    between atoms: O_20  and  C_21
REMARK    6  A    between atoms: C_23  and  O_28
REMARK    7  A    between atoms: C_24  and  C_26
REMARK    8  A    between atoms: O_28  and  C_29
REMARK    9  A    between atoms: C_33  and  C_35
REMARK                            x       y       z     vdW  Elec       q    Type
REMARK                         _______ _______ _______ _____ _____    ______ ____
ROOT
ATOM      1  C   UNL     1      45.999  82.127  39.488  0.00  0.00    +0.043 C 
ATOM      2  C   UNL     1      45.720  80.777  38.904  0.00  0.00    +0.126 C 
ATOM      3  C   UNL     1      46.625  79.699  39.432  0.00  0.00    +0.199 C 
ATOM      4  C   UNL     1      46.636  79.709  40.961  0.00  0.00    +0.178 C 
ATOM      5  C   UNL     1      47.123  81.084  41.372  0.00  0.00    +0.165 C 
ATOM      6  C   UNL     1      46.036  82.080  41.018  0.00  0.00    +0.123 C 
ATOM      7  N   UNL     1      44.753  81.741  41.563  0.00  0.00    -0.130 NA
ATOM      8  O   UNL     1      46.174  78.473  38.947  0.00  0.00    -0.219 OA
ATOM      9  N   UNL     1      45.944  80.878  37.463  0.00  0.00    -0.130 NA
ENDROOT
BRANCH   5  10
ATOM     10  O   UNL     1      47.512  81.169  42.685  0.00  0.00    -0.328 OA
BRANCH  10  11
ATOM     11  C   UNL     1      48.874  81.055  42.775  0.00  0.00    +0.256 C 
ATOM     12  C   UNL     1      49.387  80.790  44.168  0.00  0.00    +0.181 C 
ATOM     13  C   UNL     1      50.854  80.411  44.034  0.00  0.00    +0.207 C 
ATOM     14  C   UNL     1      51.596  81.325  43.111  0.00  0.00    +0.212 C 
ATOM     15  C   UNL     1      50.818  81.769  41.915  0.00  0.00    +0.170 C 
ATOM     16  O   UNL     1      49.547  82.184  42.305  0.00  0.00    -0.328 OA
ATOM     17  O   UNL     1      52.030  82.465  43.804  0.00  0.00    -0.218 OA
ATOM     18  O   UNL     1      51.482  80.435  45.278  0.00  0.00    -0.219 OA
ATOM     19  N   UNL     1      48.725  79.695  44.824  0.00  0.00    -0.125 NA
BRANCH  15  20
ATOM     20  C   UNL     1      51.510  82.954  41.283  0.00  0.00    +0.142 C 
ATOM     21  N   UNL     1      50.857  83.395  40.081  0.00  0.00    -0.129 NA
ENDBRANCH  15  20
ENDBRANCH  10  11
ENDBRANCH   5  10
BRANCH   4  22
ATOM     22  O   UNL     1      45.333  79.504  41.409  0.00  0.00    -0.326 OA
BRANCH  22  23
ATOM     23  C   UNL     1      44.618  78.607  40.616  0.00  0.00    +0.269 C 
ATOM     24  C   UNL     1      44.855  77.187  41.106  0.00  0.00    +0.237 C 
ATOM     25  C   UNL     1      43.452  76.751  41.469  0.00  0.00    +0.183 C 
ATOM     26  C   UNL     1      42.623  77.570  40.546  0.00  0.00    +0.180 C 
ATOM     27  O   UNL     1      43.254  78.832  40.647  0.00  0.00    -0.326 OA
ATOM     28  O   UNL     1      45.395  76.378  40.121  0.00  0.00    -0.215 OA
BRANCH  26  29
ATOM     29  C   UNL     1      42.708  77.175  39.103  0.00  0.00    +0.214 C 
ATOM     30  O   UNL     1      41.481  77.251  38.446  0.00  0.00    -0.218 OA
ENDBRANCH  26  29
BRANCH  25  31
ATOM     31  O   UNL     1      43.367  75.388  41.321  0.00  0.00    -0.326 OA
BRANCH  31  32
ATOM     32  C   UNL     1      43.631  74.682  42.498  0.00  0.00    +0.256 C 
ATOM     33  C   UNL     1      44.337  73.394  42.279  0.00  0.00    +0.181 C 
ATOM     34  C   UNL     1      43.363  72.331  41.905  0.00  0.00    +0.207 C 
ATOM     35  C   UNL     1      42.294  72.285  42.940  0.00  0.00    +0.212 C 
ATOM     36  C   UNL     1      41.672  73.617  43.232  0.00  0.00    +0.170 C 
ATOM     37  O   UNL     1      42.507  74.675  43.251  0.00  0.00    -0.328 OA
ATOM     38  O   UNL     1      42.902  71.866  44.147  0.00  0.00    -0.218 OA
ATOM     39  O   UNL     1      42.861  72.561  40.625  0.00  0.00    -0.219 OA
ATOM     40  N   UNL     1      45.334  73.589  41.222  0.00  0.00    -0.125 NA
BRANCH  36  41
ATOM     41  C   UNL     1      40.609  73.856  42.176  0.00  0.00    +0.142 C 
ATOM     42  N   UNL     1      39.269  73.846  42.727  0.00  0.00    -0.129 NA
ENDBRANCH  36  41
ENDBRANCH  31  32
ENDBRANCH  25  31
ENDBRANCH  22  23
ENDBRANCH   4  22
TORSDOF 9
