REMARK  Name = Frovatriptan
REMARK  2 active torsions:
REMARK  status: ('A' for Active; 'I' for Inactive)
REMARK    1  A    between atoms: N_2  and  C_3
REMARK    2  A    between atoms: C_14  and  C_16
REMARK                            x       y       z     vdW  Elec       q    Type
REMARK                         _______ _______ _______ _____ _____    ______ ____
ROOT
ATOM      1  C   UNL     1      48.495  81.190  40.781  0.00  0.00    +0.078 C 
ATOM      2  C   UNL     1      48.468  82.469  40.021  0.00  0.00    +0.024 C 
ATOM      3  C   UNL     1      47.139  82.910  39.516  0.00  0.00    +0.047 C 
ATOM      4  C   UNL     1      46.182  81.783  39.367  0.00  0.00    +0.055 A 
ATOM      5  C   UNL     1      46.186  80.771  40.301  0.00  0.00    -0.006 A 
ATOM      6  C   UNL     1      47.160  80.837  41.435  0.00  0.00    +0.045 C 
ATOM      7  C   UNL     1      45.220  79.810  39.992  0.00  0.00    +0.015 A 
ATOM      8  C   UNL     1      44.640  80.295  38.831  0.00  0.00    +0.081 A 
ATOM      9  N   UNL     1      45.227  81.464  38.482  0.00  0.00    -0.250 NA
ATOM     10  C   UNL     1      43.630  79.531  38.287  0.00  0.00    +0.019 A 
ATOM     11  C   UNL     1      43.227  78.352  38.873  0.00  0.00    +0.006 A 
ATOM     12  C   UNL     1      43.820  77.885  40.033  0.00  0.00    +0.057 A 
ATOM     13  C   UNL     1      44.829  78.637  40.586  0.00  0.00    +0.006 A 
ENDROOT
BRANCH  12  14
ATOM     14  C   UNL     1      43.370  76.636  40.625  0.00  0.00    +0.284 C 
ATOM     15  O   UNL     1      43.848  76.237  41.712  0.00  0.00    -0.267 OA
ATOM     16  N   UNL     1      42.382  75.882  39.949  0.00  0.00    -0.084 NA
ENDBRANCH  12  14
BRANCH   1  18
ATOM     17  C   UNL     1      49.249  82.243  42.808  0.00  0.00    +0.107 C 
ATOM     18  N   UNL     1      49.551  81.284  41.786  0.00  0.00    -0.218 NA
ENDBRANCH   1  18
TORSDOF 2
