REMARK  Name = Fructose
REMARK  1 active torsions:
REMARK  status: ('A' for Active; 'I' for Inactive)
REMARK    1  A    between atoms: C_5  and  C_7
REMARK                            x       y       z     vdW  Elec       q    Type
REMARK                         _______ _______ _______ _____ _____    ______ ____
ROOT
ATOM      1  C   UNL     1      47.151  80.208  41.110  0.00  0.00    +0.180 C 
ATOM      2  C   UNL     1      47.611  81.561  40.741  0.00  0.00    +0.214 C 
ATOM      3  C   UNL     1      46.819  82.262  39.698  0.00  0.00    +0.220 C 
ATOM      4  C   UNL     1      45.893  81.310  38.938  0.00  0.00    +0.241 C 
ATOM      5  C   UNL     1      45.130  80.552  39.989  0.00  0.00    +0.281 C 
ATOM      6  O   UNL     1      45.919  79.819  40.793  0.00  0.00    -0.325 OA
ATOM      7  O   UNL     1      44.410  81.474  40.765  0.00  0.00    -0.190 OA
ATOM      8  O   UNL     1      45.119  82.076  38.118  0.00  0.00    -0.215 OA
ATOM      9  O   UNL     1      47.596  82.960  38.772  0.00  0.00    -0.217 OA
ATOM     10  O   UNL     1      47.645  82.395  41.883  0.00  0.00    -0.218 OA
ENDROOT
BRANCH   5  11
ATOM     11  C   UNL     1      44.135  79.576  39.359  0.00  0.00    +0.243 C 
ATOM     12  O   UNL     1      44.880  78.695  38.578  0.00  0.00    -0.215 OA
ENDBRANCH   5  11
TORSDOF 1
