REMARK  Name = Fruquintinib
REMARK  5 active torsions:
REMARK  status: ('A' for Active; 'I' for Inactive)
REMARK    1  A    between atoms: C_3  and  C_26
REMARK    2  A    between atoms: C_8  and  O_11
REMARK    3  A    between atoms: O_11  and  C_12
REMARK    4  A    between atoms: C_18  and  O_24
REMARK    5  A    between atoms: C_19  and  O_22
REMARK                            x       y       z     vdW  Elec       q    Type
REMARK                         _______ _______ _______ _____ _____    ______ ____
ROOT
ATOM      1  O   UNL     1      46.710  81.197  40.995  0.00  0.00    -0.436 OA
ENDROOT
BRANCH   1   9
ATOM      2  C   UNL     1      51.074  85.527  44.829  0.00  0.00    +0.073 C 
ATOM      3  C   UNL     1      50.381  84.511  43.964  0.00  0.00    +0.128 A 
ATOM      4  C   UNL     1      51.102  83.524  43.261  0.00  0.00    +0.088 A 
ATOM      5  C   UNL     1      50.135  82.802  42.598  0.00  0.00    +0.042 A 
ATOM      6  C   UNL     1      48.889  83.364  42.917  0.00  0.00    +0.148 A 
ATOM      7  O   UNL     1      49.120  84.379  43.736  0.00  0.00    -0.457 OA
ATOM      8  C   UNL     1      47.723  82.860  42.404  0.00  0.00    +0.075 A 
ATOM      9  C   UNL     1      47.770  81.761  41.541  0.00  0.00    +0.150 A 
ATOM     10  C   UNL     1      49.026  81.208  41.227  0.00  0.00    +0.038 A 
ATOM     11  C   UNL     1      50.171  81.712  41.738  0.00  0.00    +0.006 A 
BRANCH   4  12
ATOM     12  C   UNL     1      52.539  83.395  43.264  0.00  0.00    +0.268 C 
ATOM     13  O   UNL     1      53.097  83.267  44.422  0.00  0.00    -0.268 OA
ATOM     14  N   UNL     1      53.424  83.382  42.183  0.00  0.00    -0.200 NA
ATOM     15  C   UNL     1      54.798  82.863  42.326  0.00  0.00    +0.139 C 
ENDBRANCH   4  12
ENDBRANCH   1   9
BRANCH   1  16
ATOM     16  C   UNL     1      45.852  81.218  40.004  0.00  0.00    +0.233 A 
ATOM     17  N   UNL     1      45.903  82.254  39.086  0.00  0.00    -0.189 NA
ATOM     18  C   UNL     1      45.056  82.310  38.075  0.00  0.00    +0.202 A 
ATOM     19  N   UNL     1      44.130  81.356  37.928  0.00  0.00    -0.224 NA
ATOM     20  C   UNL     1      44.003  80.319  38.761  0.00  0.00    +0.091 A 
ATOM     21  C   UNL     1      43.009  79.370  38.532  0.00  0.00    +0.059 A 
ATOM     22  C   UNL     1      42.889  78.314  39.392  0.00  0.00    +0.174 A 
ATOM     23  C   UNL     1      43.747  78.209  40.460  0.00  0.00    +0.173 A 
ATOM     24  C   UNL     1      44.741  79.168  40.680  0.00  0.00    +0.046 A 
ATOM     25  C   UNL     1      44.872  80.230  39.829  0.00  0.00    +0.074 A 
BRANCH  23  26
ATOM     26  O   UNL     1      43.661  77.147  41.364  0.00  0.00    -0.468 OA
ATOM     27  C   UNL     1      44.735  76.845  42.201  0.00  0.00    +0.253 C 
ENDBRANCH  23  26
BRANCH  22  28
ATOM     28  O   UNL     1      41.930  77.326  39.239  0.00  0.00    -0.468 OA
ATOM     29  C   UNL     1      40.935  77.408  38.223  0.00  0.00    +0.253 C 
ENDBRANCH  22  28
ENDBRANCH   1  16
TORSDOF 5
