REMARK  Name = Fulvestrant
REMARK  15 active torsions:
REMARK  status: ('A' for Active; 'I' for Inactive)
REMARK    1  A    between atoms: C_12  and  C_21
REMARK    2  A    between atoms: C_21  and  C_22
REMARK    3  A    between atoms: C_22  and  C_23
REMARK    4  A    between atoms: C_23  and  C_24
REMARK    5  A    between atoms: C_24  and  C_25
REMARK    6  A    between atoms: C_25  and  C_26
REMARK    7  A    between atoms: C_26  and  C_27
REMARK    8  A    between atoms: C_27  and  C_28
REMARK    9  A    between atoms: C_28  and  C_29
REMARK   10  A    between atoms: C_29  and  S_30
REMARK   11  A    between atoms: S_30  and  C_32
REMARK   12  A    between atoms: C_32  and  C_33
REMARK   13  A    between atoms: C_33  and  C_34
REMARK   14  A    between atoms: C_34  and  C_35
REMARK   15  A    between atoms: C_35  and  C_36
REMARK                            x       y       z     vdW  Elec       q    Type
REMARK                         _______ _______ _______ _____ _____    ______ ____
ROOT
ATOM      1  C   UNL     1      47.889  78.520  43.026  0.00  0.00    +0.000 C 
ENDROOT
BRANCH   1  13
ATOM      2  C   UNL     1      43.478  75.295  42.887  0.00  0.00    +0.003 C 
ATOM      3  C   UNL     1      44.675  76.141  42.424  0.00  0.00    +0.028 C 
ATOM      4  C   UNL     1      44.528  76.339  40.974  0.00  0.00    +0.003 C 
ATOM      5  C   UNL     1      44.031  77.666  40.568  0.00  0.00    +0.004 C 
ATOM      6  C   UNL     1      44.463  78.876  41.322  0.00  0.00    +0.022 C 
ATOM      7  C   UNL     1      45.334  78.613  42.559  0.00  0.00    +0.004 C 
ATOM      8  C   UNL     1      44.706  77.463  43.180  0.00  0.00    +0.003 C 
ATOM      9  C   UNL     1      45.039  77.008  44.555  0.00  0.00    +0.003 C 
ATOM     10  C   UNL     1      45.916  75.758  44.380  0.00  0.00    +0.033 C 
ATOM     11  C   UNL     1      45.877  75.390  42.907  0.00  0.00    +0.152 C 
ATOM     12  O   UNL     1      45.782  74.012  42.770  0.00  0.00    -0.223 OA
ATOM     13  C   UNL     1      46.710  78.842  42.243  0.00  0.00    +0.005 C 
ATOM     14  C   UNL     1      47.098  78.688  40.741  0.00  0.00    +0.026 C 
ATOM     15  C   UNL     1      46.330  79.719  39.983  0.00  0.00    -0.023 A 
ATOM     16  C   UNL     1      45.017  79.820  40.352  0.00  0.00    -0.026 A 
ATOM     17  C   UNL     1      44.269  80.800  39.729  0.00  0.00    -0.001 A 
ATOM     18  C   UNL     1      44.842  81.635  38.772  0.00  0.00    +0.042 A 
ATOM     19  C   UNL     1      46.168  81.507  38.422  0.00  0.00    +0.195 A 
ATOM     20  C   UNL     1      46.931  80.528  39.040  0.00  0.00    +0.037 A 
ATOM     21  O   UNL     1      46.730  82.354  37.455  0.00  0.00    -0.287 OA
ENDBRANCH   1  13
BRANCH   1  22
ATOM     22  C   UNL     1      49.067  79.505  43.011  0.00  0.00    +0.000 C 
BRANCH  22  23
ATOM     23  C   UNL     1      49.124  80.414  44.163  0.00  0.00    +0.000 C 
BRANCH  23  24
ATOM     24  C   UNL     1      49.775  79.896  45.370  0.00  0.00    +0.000 C 
BRANCH  24  25
ATOM     25  C   UNL     1      51.011  80.439  45.933  0.00  0.00    +0.000 C 
BRANCH  25  26
ATOM     26  C   UNL     1      50.944  81.294  47.144  0.00  0.00    +0.000 C 
BRANCH  26  27
ATOM     27  C   UNL     1      51.667  80.663  48.346  0.00  0.00    +0.001 C 
BRANCH  27  28
ATOM     28  C   UNL     1      52.878  81.434  48.760  0.00  0.00    +0.014 C 
BRANCH  28  29
ATOM     29  C   UNL     1      52.423  82.846  49.092  0.00  0.00    +0.092 C 
BRANCH  29  30
ATOM     30  S   UNL     1      53.612  84.011  48.276  0.00  0.00    +0.042 S 
ATOM     31  O   UNL     1      54.415  83.085  47.394  0.00  0.00    -0.256 OA
BRANCH  30  32
ATOM     32  C   UNL     1      52.530  85.005  47.250  0.00  0.00    +0.092 C 
BRANCH  32  33
ATOM     33  C   UNL     1      52.293  84.582  45.861  0.00  0.00    +0.020 C 
BRANCH  33  34
ATOM     34  C   UNL     1      51.216  85.335  45.162  0.00  0.00    +0.077 C 
BRANCH  34  35
ATOM     35  C   UNL     1      50.944  84.875  43.745  0.00  0.00    +0.349 C 
ATOM     36  F   UNL     1      51.849  83.845  43.490  0.00  0.00    -0.195 F 
ATOM     37  F   UNL     1      51.233  85.871  42.835  0.00  0.00    -0.195 F 
BRANCH  35  38
ATOM     38  C   UNL     1      49.547  84.385  43.509  0.00  0.00    +0.454 C 
ATOM     39  F   UNL     1      49.324  83.292  44.352  0.00  0.00    -0.165 F 
ATOM     40  F   UNL     1      49.275  84.021  42.215  0.00  0.00    -0.165 F 
ATOM     41  F   UNL     1      48.623  85.353  43.930  0.00  0.00    -0.165 F 
ENDBRANCH  35  38
ENDBRANCH  34  35
ENDBRANCH  33  34
ENDBRANCH  32  33
ENDBRANCH  30  32
ENDBRANCH  29  30
ENDBRANCH  28  29
ENDBRANCH  27  28
ENDBRANCH  26  27
ENDBRANCH  25  26
ENDBRANCH  24  25
ENDBRANCH  23  24
ENDBRANCH  22  23
ENDBRANCH   1  22
TORSDOF 15
