REMARK  Name = Furazolidone
REMARK  3 active torsions:
REMARK  status: ('A' for Active; 'I' for Inactive)
REMARK    1  A    between atoms: N_6  and  N_7
REMARK    2  A    between atoms: C_8  and  C_9
REMARK    3  A    between atoms: C_12  and  N_14
REMARK                            x       y       z     vdW  Elec       q    Type
REMARK                         _______ _______ _______ _____ _____    ______ ____
ROOT
ATOM      1  N   UNL     1      46.701  81.007  40.065  0.00  0.00    -0.168 NA
ATOM      2  C   UNL     1      46.818  81.380  41.308  0.00  0.00    +0.155 C 
ENDROOT
BRANCH   1   8
ATOM      3  C   UNL     1      44.894  79.284  40.299  0.00  0.00    +0.170 C 
ATOM      4  C   UNL     1      44.111  78.671  39.161  0.00  0.00    +0.234 C 
ATOM      5  O   UNL     1      43.844  79.769  38.279  0.00  0.00    -0.431 OA
ATOM      6  C   UNL     1      44.633  80.844  38.586  0.00  0.00    +0.424 C 
ATOM      7  O   UNL     1      44.630  81.974  38.052  0.00  0.00    -0.224 OA
ATOM      8  N   UNL     1      45.490  80.439  39.654  0.00  0.00    -0.143 N 
ENDBRANCH   1   8
BRANCH   2   9
ATOM      9  C   UNL     1      47.877  82.286  41.729  0.00  0.00    +0.168 A 
ATOM     10  C   UNL     1      49.173  82.217  41.270  0.00  0.00    +0.044 A 
ATOM     11  C   UNL     1      49.827  83.239  41.913  0.00  0.00    +0.066 A 
ATOM     12  C   UNL     1      48.938  83.899  42.736  0.00  0.00    +0.289 A 
ATOM     13  O   UNL     1      47.784  83.275  42.578  0.00  0.00    -0.431 OA
BRANCH  12  14
ATOM     14  N   UNL     1      49.189  85.016  43.584  0.00  0.00    +0.093 N 
ATOM     15  O   UNL     1      48.251  85.725  43.959  0.00  0.00    -0.123 OA
ATOM     16  O   UNL     1      50.453  85.294  43.972  0.00  0.00    -0.123 OA
ENDBRANCH  12  14
ENDBRANCH   2   9
TORSDOF 3
