REMARK  Name = Furosemide
REMARK  5 active torsions:
REMARK  status: ('A' for Active; 'I' for Inactive)
REMARK    1  A    between atoms: C_4  and  C_6
REMARK    2  A    between atoms: C_6  and  N_7
REMARK    3  A    between atoms: N_7  and  C_8
REMARK    4  A    between atoms: C_11  and  S_17
REMARK    5  A    between atoms: C_13  and  C_14
REMARK                            x       y       z     vdW  Elec       q    Type
REMARK                         _______ _______ _______ _____ _____    ______ ____
ROOT
ATOM      1  C   UNL     1      46.156  80.398  40.496  0.00  0.00    +0.073 A 
ATOM      2  C   UNL     1      46.920  79.951  41.582  0.00  0.00    +0.029 A 
ATOM      3  C   UNL     1      48.033  80.630  42.045  0.00  0.00    +0.078 A 
ATOM      4  C   UNL     1      48.410  81.781  41.428  0.00  0.00    +0.136 A 
ATOM      5  C   UNL     1      47.697  82.247  40.375  0.00  0.00    +0.029 A 
ATOM      6  C   UNL     1      46.551  81.553  39.894  0.00  0.00    +0.096 A 
ATOM      7 CL   UNL     1      48.916  79.972  43.417  0.00  0.00    -0.081 Cl
ENDROOT
BRANCH   4   8
ATOM      8  S   UNL     1      49.834  82.643  42.025  0.00  0.00    +0.094 S 
ATOM      9  O   UNL     1      49.532  83.317  43.337  0.00  0.00    -0.150 OA
ATOM     10  O   UNL     1      50.939  81.647  42.217  0.00  0.00    -0.150 OA
ATOM     11  N   UNL     1      50.359  83.795  40.856  0.00  0.00    +0.039 NA
ENDBRANCH   4   8
BRANCH   6  12
ATOM     12  C   UNL     1      45.860  82.112  38.768  0.00  0.00    +0.389 C 
ATOM     13  O   UNL     1      44.862  81.634  38.246  0.00  0.00    -0.241 OA
ATOM     14  O   UNL     1      46.343  83.295  38.198  0.00  0.00    -0.241 OA
ENDBRANCH   6  12
BRANCH   1  15
ATOM     15  N   UNL     1      45.020  79.671  40.111  0.00  0.00    -0.229 NA
BRANCH  15  16
ATOM     16  C   UNL     1      44.675  78.348  40.635  0.00  0.00    +0.176 C 
BRANCH  16  20
ATOM     17  C   UNL     1      42.022  77.504  38.296  0.00  0.00    +0.043 A 
ATOM     18  C   UNL     1      41.895  76.496  39.216  0.00  0.00    +0.179 A 
ATOM     19  O   UNL     1      42.805  76.696  40.114  0.00  0.00    -0.453 OA
ATOM     20  C   UNL     1      43.540  77.739  39.899  0.00  0.00    +0.145 A 
ATOM     21  C   UNL     1      43.059  78.311  38.702  0.00  0.00    +0.038 A 
ENDBRANCH  16  20
ENDBRANCH  15  16
ENDBRANCH   1  15
TORSDOF 5
