REMARK  Name = Fusidic_Acid
REMARK  6 active torsions:
REMARK  status: ('A' for Active; 'I' for Inactive)
REMARK    1  A    between atoms: C_19  and  O_31
REMARK    2  A    between atoms: C_21  and  C_22
REMARK    3  A    between atoms: C_21  and  C_28
REMARK    4  A    between atoms: C_22  and  C_23
REMARK    5  A    between atoms: C_23  and  C_24
REMARK    6  A    between atoms: O_31  and  C_32
REMARK                            x       y       z     vdW  Elec       q    Type
REMARK                         _______ _______ _______ _____ _____    ______ ____
ROOT
ATOM      1  C   UNL     1      52.604  82.357  42.605  0.00  0.00    +0.003 C 
ATOM      2  C   UNL     1      51.287  83.113  42.564  0.00  0.00    +0.030 C 
ATOM      3  C   UNL     1      50.269  82.256  43.259  0.00  0.00    +0.003 C 
ATOM      4  C   UNL     1      50.354  80.816  42.915  0.00  0.00    +0.000 C 
ATOM      5  C   UNL     1      49.105  80.180  42.409  0.00  0.00    +0.000 C 
ATOM      6  C   UNL     1      48.382  81.054  41.392  0.00  0.00    +0.003 C 
ATOM      7  C   UNL     1      48.232  82.467  41.827  0.00  0.00    +0.030 C 
ATOM      8  C   UNL     1      48.855  82.799  43.168  0.00  0.00    +0.003 C 
ATOM      9  C   UNL     1      48.945  84.337  43.192  0.00  0.00    +0.003 C 
ATOM     10  C   UNL     1      50.152  84.784  43.994  0.00  0.00    +0.033 C 
ATOM     11  C   UNL     1      51.442  84.425  43.305  0.00  0.00    +0.152 C 
ATOM     12  O   UNL     1      52.432  84.283  44.272  0.00  0.00    -0.223 OA
ATOM     13  C   UNL     1      48.123  82.406  44.377  0.00  0.00    +0.000 C 
ATOM     14  C   UNL     1      46.903  83.101  41.644  0.00  0.00    +0.152 C 
ATOM     15  C   UNL     1      45.865  82.396  40.880  0.00  0.00    +0.037 C 
ATOM     16  C   UNL     1      46.257  81.160  40.133  0.00  0.00    +0.024 C 
ATOM     17  C   UNL     1      47.123  80.329  41.016  0.00  0.00    +0.008 C 
ATOM     18  C   UNL     1      46.194  79.985  42.112  0.00  0.00    +0.048 C 
ATOM     19  C   UNL     1      44.983  79.469  41.249  0.00  0.00    +0.187 C 
ATOM     20  C   UNL     1      44.999  80.299  40.062  0.00  0.00    -0.003 C 
ATOM     21  C   UNL     1      44.143  80.337  39.059  0.00  0.00    +0.053 C 
ATOM     22  C   UNL     1      47.468  79.054  40.279  0.00  0.00    +0.000 C 
ATOM     23  O   UNL     1      46.343  83.455  42.903  0.00  0.00    -0.223 OA
ATOM     24  C   UNL     1      49.252  80.968  40.121  0.00  0.00    +0.000 C 
ENDROOT
BRANCH  21  25
ATOM     25  C   UNL     1      44.439  81.000  37.827  0.00  0.00    +0.383 C 
ATOM     26  O   UNL     1      45.336  81.902  37.802  0.00  0.00    -0.241 OA
ATOM     27  O   UNL     1      43.803  80.725  36.649  0.00  0.00    -0.241 OA
ENDBRANCH  21  25
BRANCH  21  28
ATOM     28  C   UNL     1      42.839  79.601  39.144  0.00  0.00    +0.037 C 
BRANCH  28  29
ATOM     29  C   UNL     1      43.029  78.234  38.544  0.00  0.00    +0.030 C 
BRANCH  29  30
ATOM     30  C   UNL     1      41.676  77.634  38.397  0.00  0.00    -0.034 C 
ATOM     31  C   UNL     1      41.544  76.327  38.475  0.00  0.00    -0.048 C 
ATOM     32  C   UNL     1      41.347  75.650  39.779  0.00  0.00    +0.026 C 
ATOM     33  C   UNL     1      41.593  75.514  37.223  0.00  0.00    +0.026 C 
ENDBRANCH  29  30
ENDBRANCH  28  29
ENDBRANCH  21  28
BRANCH  19  34
ATOM     34  O   UNL     1      45.230  78.096  41.062  0.00  0.00    -0.448 OA
BRANCH  34  35
ATOM     35  C   UNL     1      44.618  77.079  41.749  0.00  0.00    +0.318 C 
ATOM     36  O   UNL     1      44.585  77.102  43.003  0.00  0.00    -0.250 OA
ATOM     37  C   UNL     1      43.999  75.962  40.990  0.00  0.00    +0.121 C 
ENDBRANCH  34  35
ENDBRANCH  19  34
TORSDOF 6
