REMARK  Name = Futibatinib
REMARK  6 active torsions:
REMARK  status: ('A' for Active; 'I' for Inactive)
REMARK    1  A    between atoms: O_2  and  C_3
REMARK    2  A    between atoms: C_5  and  O_30
REMARK    3  A    between atoms: C_7  and  C_9
REMARK    4  A    between atoms: C_10  and  C_11
REMARK    5  A    between atoms: N_13  and  C_21
REMARK    6  A    between atoms: C_26  and  C_28
REMARK                            x       y       z     vdW  Elec       q    Type
REMARK                         _______ _______ _______ _____ _____    ______ ____
ROOT
ATOM      1  C   UNL     1      47.228  80.419  41.078  0.00  0.00    +0.148 A 
ATOM      2  N   UNL     1      46.615  79.354  41.528  0.00  0.00    -0.159 NA
ATOM      3  N   UNL     1      45.463  78.992  41.088  0.00  0.00    -0.234 N 
ATOM      4  C   UNL     1      45.188  79.977  40.107  0.00  0.00    +0.166 A 
ATOM      5  N   UNL     1      44.168  80.219  39.297  0.00  0.00    -0.205 NA
ATOM      6  C   UNL     1      44.186  81.262  38.481  0.00  0.00    +0.202 A 
ATOM      7  N   UNL     1      45.200  82.154  38.381  0.00  0.00    -0.206 NA
ATOM      8  C   UNL     1      46.262  81.938  39.209  0.00  0.00    +0.176 A 
ATOM      9  C   UNL     1      46.233  80.840  40.080  0.00  0.00    +0.097 A 
ATOM     10  N   UNL     1      47.483  82.674  39.167  0.00  0.00    -0.107 NA
ENDROOT
BRANCH   3  11
ATOM     11  C   UNL     1      44.673  77.853  41.369  0.00  0.00    +0.128 C 
ATOM     12  C   UNL     1      44.458  77.724  42.883  0.00  0.00    +0.048 C 
ATOM     13  C   UNL     1      45.024  76.337  43.261  0.00  0.00    +0.096 C 
ATOM     14  N   UNL     1      44.764  75.633  42.061  0.00  0.00    -0.274 N 
ATOM     15  C   UNL     1      45.132  76.520  40.940  0.00  0.00    +0.118 C 
ATOM     16  C   UNL     1      44.241  74.297  41.945  0.00  0.00    +0.249 C 
ATOM     17  O   UNL     1      43.865  73.719  42.956  0.00  0.00    -0.270 OA
BRANCH  16  18
ATOM     18  C   UNL     1      44.196  73.748  40.641  0.00  0.00    +0.058 C 
ATOM     19  C   UNL     1      43.916  72.599  40.118  0.00  0.00    +0.005 C 
ENDBRANCH  16  18
ENDBRANCH   3  11
BRANCH   1  21
ATOM     20  C   UNL     1      49.092  81.992  41.856  0.00  0.00    -0.058 C 
ATOM     21  C   UNL     1      48.165  81.207  41.476  0.00  0.00    -0.039 C 
BRANCH  20  26
ATOM     22  C   UNL     1      51.316  83.807  44.228  0.00  0.00    +0.142 A 
ATOM     23  C   UNL     1      52.486  83.879  43.527  0.00  0.00    +0.074 A 
ATOM     24  C   UNL     1      52.595  83.533  42.302  0.00  0.00    +0.142 A 
ATOM     25  C   UNL     1      51.323  83.067  41.792  0.00  0.00    +0.045 A 
ATOM     26  C   UNL     1      50.237  82.950  42.297  0.00  0.00    +0.048 A 
ATOM     27  C   UNL     1      50.106  83.390  43.814  0.00  0.00    +0.045 A 
BRANCH  22  29
ATOM     28  C   UNL     1      51.036  85.531  46.011  0.00  0.00    +0.252 C 
ATOM     29  O   UNL     1      51.339  84.250  45.652  0.00  0.00    -0.471 OA
ENDBRANCH  22  29
BRANCH  24  30
ATOM     30  O   UNL     1      53.543  83.428  41.335  0.00  0.00    -0.471 OA
ATOM     31  C   UNL     1      53.806  83.629  40.054  0.00  0.00    +0.252 C 
ENDBRANCH  24  30
ENDBRANCH  20  26
ENDBRANCH   1  21
TORSDOF 6
