REMARK  Name = Gabexate
REMARK  11 active torsions:
REMARK  status: ('A' for Active; 'I' for Inactive)
REMARK    1  A    between atoms: C_2  and  O_3
REMARK    2  A    between atoms: O_3  and  C_4
REMARK    3  A    between atoms: C_4  and  C_6
REMARK    4  A    between atoms: C_9  and  O_12
REMARK    5  A    between atoms: O_12  and  C_13
REMARK    6  A    between atoms: C_13  and  C_15
REMARK    7  A    between atoms: C_15  and  C_16
REMARK    8  A    between atoms: C_16  and  C_17
REMARK    9  A    between atoms: C_17  and  C_18
REMARK   10  A    between atoms: C_18  and  C_19
REMARK   11  A    between atoms: C_19  and  N_20
REMARK                            x       y       z     vdW  Elec       q    Type
REMARK                         _______ _______ _______ _____ _____    ______ ____
ROOT
ATOM      1  O   UNL     1      44.718  80.475  39.987  0.00  0.00    -0.424 OA
ENDROOT
BRANCH   1   5
ATOM      2  C   UNL     1      41.769  77.717  38.729  0.00  0.00    +0.076 A 
ATOM      3  C   UNL     1      41.999  78.905  38.065  0.00  0.00    +0.010 A 
ATOM      4  C   UNL     1      42.961  79.803  38.477  0.00  0.00    +0.038 A 
ATOM      5  C   UNL     1      43.751  79.544  39.596  0.00  0.00    +0.148 A 
ATOM      6  C   UNL     1      43.527  78.364  40.261  0.00  0.00    +0.038 A 
ATOM      7  C   UNL     1      42.557  77.469  39.837  0.00  0.00    +0.010 A 
BRANCH   2   8
ATOM      8  C   UNL     1      40.746  76.782  38.284  0.00  0.00    +0.341 C 
ATOM      9  O   UNL     1      40.017  77.144  37.289  0.00  0.00    -0.245 OA
BRANCH   8  10
ATOM     10  O   UNL     1      40.476  75.557  38.809  0.00  0.00    -0.445 OA
BRANCH  10  12
ATOM     11  C   UNL     1      40.051  73.694  37.324  0.00  0.00    +0.051 C 
ATOM     12  C   UNL     1      39.464  74.670  38.357  0.00  0.00    +0.209 C 
ENDBRANCH  10  12
ENDBRANCH   8  10
ENDBRANCH   2   8
ENDBRANCH   1   5
BRANCH   1  13
ATOM     13  C   UNL     1      45.237  81.372  39.083  0.00  0.00    +0.321 C 
ATOM     14  O   UNL     1      44.720  81.498  37.962  0.00  0.00    -0.250 OA
BRANCH  13  15
ATOM     15  C   UNL     1      46.410  82.178  39.461  0.00  0.00    +0.110 C 
BRANCH  15  16
ATOM     16  C   UNL     1      46.557  82.115  40.968  0.00  0.00    +0.012 C 
BRANCH  16  17
ATOM     17  C   UNL     1      47.825  81.428  41.385  0.00  0.00    +0.003 C 
BRANCH  17  18
ATOM     18  C   UNL     1      49.042  82.297  41.359  0.00  0.00    +0.026 C 
BRANCH  18  19
ATOM     19  C   UNL     1      50.283  81.516  41.810  0.00  0.00    +0.129 C 
BRANCH  19  20
ATOM     20  N   UNL     1      51.480  82.313  41.536  0.00  0.00    -0.234 NA
ATOM     21  C   UNL     1      52.401  82.384  42.428  0.00  0.00    +0.284 C 
ATOM     22  N   UNL     1      53.709  82.780  41.999  0.00  0.00    -0.104 NA
ATOM     23  N   UNL     1      52.149  82.089  43.787  0.00  0.00    -0.104 NA
ENDBRANCH  19  20
ENDBRANCH  18  19
ENDBRANCH  17  18
ENDBRANCH  16  17
ENDBRANCH  15  16
ENDBRANCH  13  15
ENDBRANCH   1  13
TORSDOF 11
