REMARK  Name = Gaboxadol
REMARK  0 active torsions:
REMARK  status: ('A' for Active; 'I' for Inactive)
REMARK                            x       y       z     vdW  Elec       q    Type
REMARK                         _______ _______ _______ _____ _____    ______ ____
ROOT
ATOM      1  C   UNL     1      45.319  80.425  40.009  0.00  0.00    +0.053 C 
ATOM      2  C   UNL     1      45.146  80.557  38.542  0.00  0.00    +0.094 C 
ATOM      3  N   UNL     1      45.639  81.736  37.939  0.00  0.00    -0.210 NA
ATOM      4  C   UNL     1      46.186  82.729  38.790  0.00  0.00    +0.155 C 
ATOM      5  C   UNL     1      47.011  82.176  39.907  0.00  0.00    +0.171 A 
ATOM      6  C   UNL     1      46.575  81.020  40.517  0.00  0.00    +0.074 A 
ATOM      7  C   UNL     1      47.501  80.740  41.488  0.00  0.00    +0.312 A 
ATOM      8  O   UNL     1      47.462  79.754  42.273  0.00  0.00    -0.262 OA
ATOM      9  N   UNL     1      48.448  81.692  41.454  0.00  0.00    -0.035 NA
ATOM     10  O   UNL     1      48.111  82.511  40.506  0.00  0.00    -0.354 OA
ENDROOT
TORSDOF 0
