REMARK  Name = Galantamine
REMARK  1 active torsions:
REMARK  status: ('A' for Active; 'I' for Inactive)
REMARK    1  A    between atoms: C_13  and  O_19
REMARK                            x       y       z     vdW  Elec       q    Type
REMARK                         _______ _______ _______ _____ _____    ______ ____
ROOT
ATOM      1  C   UNL     1      46.331  83.023  37.611  0.00  0.00    +0.090 C 
ATOM      2  N   UNL     1      46.395  82.270  38.851  0.00  0.00    -0.268 NA
ATOM      3  C   UNL     1      47.567  82.675  39.551  0.00  0.00    +0.073 C 
ATOM      4  C   UNL     1      47.527  82.412  41.072  0.00  0.00    +0.029 C 
ATOM      5  C   UNL     1      47.955  80.977  41.200  0.00  0.00    +0.078 C 
ATOM      6  C   UNL     1      49.180  80.803  40.362  0.00  0.00    -0.021 C 
ATOM      7  C   UNL     1      50.272  81.278  40.982  0.00  0.00    +0.002 C 
ATOM      8  C   UNL     1      50.309  81.896  42.313  0.00  0.00    +0.177 C 
ATOM      9  C   UNL     1      49.138  81.519  43.232  0.00  0.00    +0.082 C 
ATOM     10  C   UNL     1      48.386  80.474  42.529  0.00  0.00    +0.176 C 
ATOM     11  O   UNL     1      47.321  79.827  43.071  0.00  0.00    -0.476 OA
ATOM     12  C   UNL     1      46.463  79.463  42.003  0.00  0.00    +0.168 A 
ATOM     13  C   UNL     1      45.393  78.584  41.886  0.00  0.00    +0.172 A 
ATOM     14  C   UNL     1      44.698  78.415  40.713  0.00  0.00    +0.040 A 
ATOM     15  C   UNL     1      45.098  79.167  39.610  0.00  0.00    +0.000 A 
ATOM     16  C   UNL     1      46.149  80.035  39.712  0.00  0.00    -0.007 A 
ATOM     17  C   UNL     1      46.808  80.162  40.895  0.00  0.00    +0.019 A 
ATOM     18  C   UNL     1      46.388  80.846  38.445  0.00  0.00    +0.099 C 
ATOM     19  O   UNL     1      51.467  81.395  42.955  0.00  0.00    -0.218 OA
ENDROOT
BRANCH  13  20
ATOM     20  O   UNL     1      45.021  77.846  43.023  0.00  0.00    -0.468 OA
ATOM     21  C   UNL     1      45.175  76.459  43.097  0.00  0.00    +0.253 C 
ENDBRANCH  13  20
TORSDOF 1
