REMARK  Name = Gallamine_Triethiodide
REMARK  21 active torsions:
REMARK  status: ('A' for Active; 'I' for Inactive)
REMARK    1  A    between atoms: C_2  and  N_3
REMARK    2  A    between atoms: N_3  and  C_4
REMARK    3  A    between atoms: N_3  and  C_6
REMARK    4  A    between atoms: N_3  and  C_8
REMARK    5  A    between atoms: C_8  and  C_9
REMARK    6  A    between atoms: C_9  and  O_10
REMARK    7  A    between atoms: O_10  and  C_11
REMARK    8  A    between atoms: C_12  and  O_27
REMARK    9  A    between atoms: C_13  and  O_17
REMARK   10  A    between atoms: O_17  and  C_18
REMARK   11  A    between atoms: C_18  and  C_19
REMARK   12  A    between atoms: C_19  and  N_20
REMARK   13  A    between atoms: N_20  and  C_21
REMARK   14  A    between atoms: N_20  and  C_23
REMARK   15  A    between atoms: N_20  and  C_25
REMARK   16  A    between atoms: O_27  and  C_28
REMARK   17  A    between atoms: C_28  and  C_29
REMARK   18  A    between atoms: C_29  and  N_30
REMARK   19  A    between atoms: N_30  and  C_31
REMARK   20  A    between atoms: N_30  and  C_33
REMARK   21  A    between atoms: N_30  and  C_35
REMARK                            x       y       z     vdW  Elec       q    Type
REMARK                         _______ _______ _______ _____ _____    ______ ____
ROOT
ATOM      1  C   UNL     1      43.310  77.968  39.255  0.00  0.00    +0.175 A 
ATOM      2  C   UNL     1      44.230  78.296  40.262  0.00  0.00    +0.206 A 
ATOM      3  C   UNL     1      45.461  78.852  39.987  0.00  0.00    +0.175 A 
ATOM      4  C   UNL     1      45.817  79.099  38.684  0.00  0.00    +0.040 A 
ATOM      5  C   UNL     1      44.933  78.786  37.679  0.00  0.00    +0.006 A 
ATOM      6  C   UNL     1      43.703  78.230  37.965  0.00  0.00    +0.040 A 
ENDROOT
BRANCH   2   7
ATOM      7  O   UNL     1      43.798  78.015  41.563  0.00  0.00    -0.472 OA
BRANCH   7   8
ATOM      8  C   UNL     1      44.017  76.756  42.185  0.00  0.00    +0.184 C 
BRANCH   8   9
ATOM      9  C   UNL     1      45.463  76.410  42.314  0.00  0.00    -0.025 C 
BRANCH   9  10
ATOM     10  N   UNL     1      45.650  75.123  42.942  0.00  0.00    +0.392 N 
BRANCH  10  11
ATOM     11  C   UNL     1      45.819  74.152  41.906  0.00  0.00    -0.073 C 
ATOM     12  C   UNL     1      46.803  73.069  42.177  0.00  0.00    -0.024 C 
ENDBRANCH  10  11
BRANCH  10  13
ATOM     13  C   UNL     1      44.491  74.856  43.772  0.00  0.00    -0.073 C 
ATOM     14  C   UNL     1      44.605  73.541  44.527  0.00  0.00    -0.024 C 
ENDBRANCH  10  13
BRANCH  10  15
ATOM     15  C   UNL     1      46.780  75.236  43.846  0.00  0.00    -0.073 C 
ATOM     16  C   UNL     1      48.087  75.442  43.161  0.00  0.00    -0.024 C 
ENDBRANCH  10  15
ENDBRANCH   9  10
ENDBRANCH   8   9
ENDBRANCH   7   8
ENDBRANCH   2   7
BRANCH   3  17
ATOM     17  O   UNL     1      46.297  79.144  41.027  0.00  0.00    -0.475 OA
BRANCH  17  18
ATOM     18  C   UNL     1      47.551  79.715  41.062  0.00  0.00    +0.184 C 
BRANCH  18  19
ATOM     19  C   UNL     1      47.744  81.105  40.621  0.00  0.00    -0.025 C 
BRANCH  19  20
ATOM     20  N   UNL     1      47.031  82.139  41.346  0.00  0.00    +0.392 N 
BRANCH  20  21
ATOM     21  C   UNL     1      47.461  81.994  42.718  0.00  0.00    -0.073 C 
ATOM     22  C   UNL     1      47.275  83.172  43.597  0.00  0.00    -0.024 C 
ENDBRANCH  20  21
BRANCH  20  23
ATOM     23  C   UNL     1      45.628  82.085  41.178  0.00  0.00    -0.073 C 
ATOM     24  C   UNL     1      45.147  82.225  39.782  0.00  0.00    -0.024 C 
ENDBRANCH  20  23
BRANCH  20  25
ATOM     25  C   UNL     1      47.630  83.373  40.832  0.00  0.00    -0.073 C 
ATOM     26  C   UNL     1      46.838  84.600  41.015  0.00  0.00    -0.024 C 
ENDBRANCH  20  25
ENDBRANCH  19  20
ENDBRANCH  18  19
ENDBRANCH  17  18
ENDBRANCH   3  17
BRANCH   1  27
ATOM     27  O   UNL     1      42.103  77.424  39.586  0.00  0.00    -0.475 OA
BRANCH  27  28
ATOM     28  C   UNL     1      41.049  77.065  38.776  0.00  0.00    +0.184 C 
BRANCH  28  29
ATOM     29  C   UNL     1      40.361  78.140  38.022  0.00  0.00    -0.025 C 
BRANCH  29  30
ATOM     30  N   UNL     1      39.268  77.594  37.221  0.00  0.00    +0.392 N 
BRANCH  30  31
ATOM     31  C   UNL     1      38.233  77.196  38.125  0.00  0.00    -0.073 C 
ATOM     32  C   UNL     1      36.828  77.423  37.617  0.00  0.00    -0.024 C 
ENDBRANCH  30  31
BRANCH  30  33
ATOM     33  C   UNL     1      38.745  78.632  36.333  0.00  0.00    -0.073 C 
ATOM     34  C   UNL     1      38.692  79.986  36.952  0.00  0.00    -0.024 C 
ENDBRANCH  30  33
BRANCH  30  36
ATOM     35  C   UNL     1      39.186  75.141  36.872  0.00  0.00    -0.024 C 
ATOM     36  C   UNL     1      39.655  76.482  36.402  0.00  0.00    -0.073 C 
ENDBRANCH  30  36
ENDBRANCH  29  30
ENDBRANCH  28  29
ENDBRANCH  27  28
ENDBRANCH   1  27
TORSDOF 21
REMARK  Name = Gallamine_Triethiodide
REMARK  21 active torsions:
REMARK  status: ('A' for Active; 'I' for Inactive)
REMARK    1  A    between atoms: C_2  and  N_3
REMARK    2  A    between atoms: N_3  and  C_4
REMARK    3  A    between atoms: N_3  and  C_6
REMARK    4  A    between atoms: N_3  and  C_8
REMARK    5  A    between atoms: C_8  and  C_9
REMARK    6  A    between atoms: C_9  and  O_10
REMARK    7  A    between atoms: O_10  and  C_11
REMARK    8  A    between atoms: C_12  and  O_27
REMARK    9  A    between atoms: C_13  and  O_17
REMARK   10  A    between atoms: O_17  and  C_18
REMARK   11  A    between atoms: C_18  and  C_19
REMARK   12  A    between atoms: C_19  and  N_20
REMARK   13  A    between atoms: N_20  and  C_21
REMARK   14  A    between atoms: N_20  and  C_23
REMARK   15  A    between atoms: N_20  and  C_25
REMARK   16  A    between atoms: O_27  and  C_28
REMARK   17  A    between atoms: C_28  and  C_29
REMARK   18  A    between atoms: C_29  and  N_30
REMARK   19  A    between atoms: N_30  and  C_31
REMARK   20  A    between atoms: N_30  and  C_33
REMARK   21  A    between atoms: N_30  and  C_35
REMARK                            x       y       z     vdW  Elec       q    Type
REMARK                         _______ _______ _______ _____ _____    ______ ____
ROOT
ATOM      1  I   UNL     1      44.025  78.254  40.316  0.00  0.00    +0.000 I 
ENDROOT
TORSDOF 0
REMARK  Name = Gallamine_Triethiodide
REMARK  21 active torsions:
REMARK  status: ('A' for Active; 'I' for Inactive)
REMARK    1  A    between atoms: C_2  and  N_3
REMARK    2  A    between atoms: N_3  and  C_4
REMARK    3  A    between atoms: N_3  and  C_6
REMARK    4  A    between atoms: N_3  and  C_8
REMARK    5  A    between atoms: C_8  and  C_9
REMARK    6  A    between atoms: C_9  and  O_10
REMARK    7  A    between atoms: O_10  and  C_11
REMARK    8  A    between atoms: C_12  and  O_27
REMARK    9  A    between atoms: C_13  and  O_17
REMARK   10  A    between atoms: O_17  and  C_18
REMARK   11  A    between atoms: C_18  and  C_19
REMARK   12  A    between atoms: C_19  and  N_20
REMARK   13  A    between atoms: N_20  and  C_21
REMARK   14  A    between atoms: N_20  and  C_23
REMARK   15  A    between atoms: N_20  and  C_25
REMARK   16  A    between atoms: O_27  and  C_28
REMARK   17  A    between atoms: C_28  and  C_29
REMARK   18  A    between atoms: C_29  and  N_30
REMARK   19  A    between atoms: N_30  and  C_31
REMARK   20  A    between atoms: N_30  and  C_33
REMARK   21  A    between atoms: N_30  and  C_35
REMARK                            x       y       z     vdW  Elec       q    Type
REMARK                         _______ _______ _______ _____ _____    ______ ____
ROOT
ATOM      1  I   UNL     1      44.025  78.254  40.316  0.00  0.00    +0.000 I 
ENDROOT
TORSDOF 0
REMARK  Name = Gallamine_Triethiodide
REMARK  21 active torsions:
REMARK  status: ('A' for Active; 'I' for Inactive)
REMARK    1  A    between atoms: C_2  and  N_3
REMARK    2  A    between atoms: N_3  and  C_4
REMARK    3  A    between atoms: N_3  and  C_6
REMARK    4  A    between atoms: N_3  and  C_8
REMARK    5  A    between atoms: C_8  and  C_9
REMARK    6  A    between atoms: C_9  and  O_10
REMARK    7  A    between atoms: O_10  and  C_11
REMARK    8  A    between atoms: C_12  and  O_27
REMARK    9  A    between atoms: C_13  and  O_17
REMARK   10  A    between atoms: O_17  and  C_18
REMARK   11  A    between atoms: C_18  and  C_19
REMARK   12  A    between atoms: C_19  and  N_20
REMARK   13  A    between atoms: N_20  and  C_21
REMARK   14  A    between atoms: N_20  and  C_23
REMARK   15  A    between atoms: N_20  and  C_25
REMARK   16  A    between atoms: O_27  and  C_28
REMARK   17  A    between atoms: C_28  and  C_29
REMARK   18  A    between atoms: C_29  and  N_30
REMARK   19  A    between atoms: N_30  and  C_31
REMARK   20  A    between atoms: N_30  and  C_33
REMARK   21  A    between atoms: N_30  and  C_35
REMARK                            x       y       z     vdW  Elec       q    Type
REMARK                         _______ _______ _______ _____ _____    ______ ____
ROOT
ATOM      1  I   UNL     1      44.025  78.254  40.316  0.00  0.00    +0.000 I 
ENDROOT
TORSDOF 0
