REMARK  Name = Gamma-Homolinolenic_acid
REMARK  15 active torsions:
REMARK  status: ('A' for Active; 'I' for Inactive)
REMARK    1  A    between atoms: C_2  and  C_3
REMARK    2  A    between atoms: C_3  and  C_4
REMARK    3  A    between atoms: C_4  and  C_5
REMARK    4  A    between atoms: C_5  and  C_6
REMARK    5  A    between atoms: C_7  and  C_8
REMARK    6  A    between atoms: C_8  and  C_9
REMARK    7  A    between atoms: C_10  and  C_11
REMARK    8  A    between atoms: C_11  and  C_12
REMARK    9  A    between atoms: C_13  and  C_14
REMARK   10  A    between atoms: C_14  and  C_15
REMARK   11  A    between atoms: C_15  and  C_16
REMARK   12  A    between atoms: C_16  and  C_17
REMARK   13  A    between atoms: C_17  and  C_18
REMARK   14  A    between atoms: C_18  and  C_19
REMARK   15  A    between atoms: C_19  and  C_20
REMARK                            x       y       z     vdW  Elec       q    Type
REMARK                         _______ _______ _______ _____ _____    ______ ____
ROOT
ATOM      1  C   UNL     1      42.838  75.129  41.046  0.00  0.00    +0.051 C 
ENDROOT
BRANCH   1   3
ATOM      2  C   UNL     1      43.395  75.741  43.352  0.00  0.00    -0.026 C 
ATOM      3  C   UNL     1      43.338  76.044  42.096  0.00  0.00    -0.026 C 
BRANCH   2   4
ATOM      4  C   UNL     1      44.577  75.283  44.077  0.00  0.00    +0.051 C 
BRANCH   4   6
ATOM      5  C   UNL     1      44.943  75.780  46.456  0.00  0.00    -0.030 C 
ATOM      6  C   UNL     1      44.847  76.157  45.230  0.00  0.00    -0.026 C 
BRANCH   5   7
ATOM      7  C   UNL     1      45.286  76.612  47.612  0.00  0.00    +0.026 C 
BRANCH   7   8
ATOM      8  C   UNL     1      44.521  76.163  48.858  0.00  0.00    +0.005 C 
BRANCH   8   9
ATOM      9  C   UNL     1      45.440  75.614  49.901  0.00  0.00    +0.000 C 
BRANCH   9  11
ATOM     10  C   UNL     1      45.608  74.423  52.096  0.00  0.00    +0.000 C 
ATOM     11  C   UNL     1      44.724  75.171  51.151  0.00  0.00    +0.000 C 
ENDBRANCH   9  11
ENDBRANCH   8   9
ENDBRANCH   7   8
ENDBRANCH   5   7
ENDBRANCH   4   6
ENDBRANCH   2   4
ENDBRANCH   1   3
BRANCH   1  12
ATOM     12  C   UNL     1      41.926  75.907  40.168  0.00  0.00    -0.026 C 
ATOM     13  C   UNL     1      42.303  76.397  39.025  0.00  0.00    -0.030 C 
BRANCH  13  14
ATOM     14  C   UNL     1      41.416  77.094  38.086  0.00  0.00    +0.026 C 
BRANCH  14  15
ATOM     15  C   UNL     1      42.014  78.514  37.877  0.00  0.00    +0.005 C 
BRANCH  15  16
ATOM     16  C   UNL     1      42.695  78.880  39.146  0.00  0.00    +0.000 C 
BRANCH  16  17
ATOM     17  C   UNL     1      44.127  79.130  39.061  0.00  0.00    +0.001 C 
BRANCH  17  18
ATOM     18  C   UNL     1      44.755  80.427  39.229  0.00  0.00    +0.012 C 
BRANCH  18  19
ATOM     19  C   UNL     1      46.204  80.618  39.317  0.00  0.00    +0.114 C 
BRANCH  19  20
ATOM     20  C   UNL     1      46.471  82.114  39.313  0.00  0.00    +0.365 C 
ATOM     21  O   UNL     1      45.891  82.789  38.438  0.00  0.00    -0.246 OA
ATOM     22  O   UNL     1      47.309  82.697  40.227  0.00  0.00    -0.246 OA
ENDBRANCH  19  20
ENDBRANCH  18  19
ENDBRANCH  17  18
ENDBRANCH  16  17
ENDBRANCH  15  16
ENDBRANCH  14  15
ENDBRANCH  13  14
ENDBRANCH   1  12
TORSDOF 15
