REMARK  Name = Gamolenic_acid
REMARK  13 active torsions:
REMARK  status: ('A' for Active; 'I' for Inactive)
REMARK    1  A    between atoms: C_2  and  C_3
REMARK    2  A    between atoms: C_3  and  C_4
REMARK    3  A    between atoms: C_4  and  C_5
REMARK    4  A    between atoms: C_5  and  C_6
REMARK    5  A    between atoms: C_7  and  C_8
REMARK    6  A    between atoms: C_8  and  C_9
REMARK    7  A    between atoms: C_10  and  C_11
REMARK    8  A    between atoms: C_11  and  C_12
REMARK    9  A    between atoms: C_13  and  C_14
REMARK   10  A    between atoms: C_14  and  C_15
REMARK   11  A    between atoms: C_15  and  C_16
REMARK   12  A    between atoms: C_16  and  C_17
REMARK   13  A    between atoms: C_17  and  C_18
REMARK                            x       y       z     vdW  Elec       q    Type
REMARK                         _______ _______ _______ _____ _____    ______ ____
ROOT
ATOM      1  C   UNL     1      46.437  79.158  41.380  0.00  0.00    -0.026 C 
ATOM      2  C   UNL     1      45.212  79.537  41.380  0.00  0.00    -0.026 C 
ENDROOT
BRANCH   1   3
ATOM      3  C   UNL     1      47.620  79.981  41.073  0.00  0.00    +0.051 C 
BRANCH   3   5
ATOM      4  C   UNL     1      48.416  82.103  42.125  0.00  0.00    -0.030 C 
ATOM      5  C   UNL     1      47.441  81.326  41.735  0.00  0.00    -0.026 C 
BRANCH   4   6
ATOM      6  C   UNL     1      48.349  83.463  42.643  0.00  0.00    +0.026 C 
BRANCH   6   7
ATOM      7  C   UNL     1      49.639  83.891  43.327  0.00  0.00    +0.005 C 
BRANCH   7   8
ATOM      8  C   UNL     1      50.709  83.890  42.241  0.00  0.00    +0.000 C 
BRANCH   8  10
ATOM      9  C   UNL     1      53.056  84.205  41.663  0.00  0.00    +0.000 C 
ATOM     10  C   UNL     1      52.043  84.328  42.810  0.00  0.00    +0.000 C 
ENDBRANCH   8  10
ENDBRANCH   7   8
ENDBRANCH   6   7
ENDBRANCH   4   6
ENDBRANCH   3   5
ENDBRANCH   1   3
BRANCH   2  11
ATOM     11  C   UNL     1      44.303  79.535  40.236  0.00  0.00    +0.051 C 
BRANCH  11  12
ATOM     12  C   UNL     1      43.718  78.148  40.084  0.00  0.00    -0.026 C 
ATOM     13  C   UNL     1      42.542  77.996  39.530  0.00  0.00    -0.030 C 
BRANCH  13  14
ATOM     14  C   UNL     1      42.004  76.713  39.079  0.00  0.00    +0.026 C 
BRANCH  14  15
ATOM     15  C   UNL     1      40.537  76.659  38.876  0.00  0.00    +0.005 C 
BRANCH  15  16
ATOM     16  C   UNL     1      40.052  77.088  37.545  0.00  0.00    +0.012 C 
BRANCH  16  17
ATOM     17  C   UNL     1      39.875  76.148  36.432  0.00  0.00    +0.114 C 
BRANCH  17  18
ATOM     18  C   UNL     1      38.831  75.110  36.863  0.00  0.00    +0.365 C 
ATOM     19  O   UNL     1      38.507  74.255  36.031  0.00  0.00    -0.246 OA
ATOM     20  O   UNL     1      38.299  75.152  38.125  0.00  0.00    -0.246 OA
ENDBRANCH  17  18
ENDBRANCH  16  17
ENDBRANCH  15  16
ENDBRANCH  14  15
ENDBRANCH  13  14
ENDBRANCH  11  12
ENDBRANCH   2  11
TORSDOF 13
