REMARK  Name = Ganaxolone
REMARK  1 active torsions:
REMARK  status: ('A' for Active; 'I' for Inactive)
REMARK    1  A    between atoms: C_2  and  C_4
REMARK                            x       y       z     vdW  Elec       q    Type
REMARK                         _______ _______ _______ _____ _____    ______ ____
ROOT
ATOM      1  C   UNL     1      49.993  82.877  43.477  0.00  0.00    +0.058 C 
ATOM      2  C   UNL     1      49.444  84.272  43.701  0.00  0.00    +0.007 C 
ATOM      3  C   UNL     1      48.381  84.431  42.632  0.00  0.00    +0.000 C 
ATOM      4  C   UNL     1      48.677  83.410  41.547  0.00  0.00    +0.000 C 
ATOM      5  C   UNL     1      49.938  82.726  41.957  0.00  0.00    +0.007 C 
ATOM      6  C   UNL     1      50.124  81.332  41.535  0.00  0.00    +0.000 C 
ATOM      7  C   UNL     1      48.944  80.597  41.040  0.00  0.00    +0.000 C 
ATOM      8  C   UNL     1      47.628  81.107  41.562  0.00  0.00    +0.000 C 
ATOM      9  C   UNL     1      47.529  82.560  41.166  0.00  0.00    +0.000 C 
ATOM     10  C   UNL     1      46.206  83.097  41.721  0.00  0.00    +0.000 C 
ATOM     11  C   UNL     1      45.100  82.468  40.918  0.00  0.00    +0.000 C 
ATOM     12  C   UNL     1      45.484  81.181  40.265  0.00  0.00    +0.002 C 
ATOM     13  C   UNL     1      46.453  80.352  41.069  0.00  0.00    +0.000 C 
ATOM     14  C   UNL     1      46.809  79.176  40.183  0.00  0.00    +0.003 C 
ATOM     15  C   UNL     1      45.616  78.418  39.702  0.00  0.00    +0.030 C 
ATOM     16  C   UNL     1      44.500  79.252  39.177  0.00  0.00    +0.127 C 
ATOM     17  C   UNL     1      44.195  80.359  40.136  0.00  0.00    +0.030 C 
ATOM     18  C   UNL     1      43.306  78.360  38.927  0.00  0.00    +0.033 C 
ATOM     19  O   UNL     1      44.892  79.836  37.962  0.00  0.00    -0.226 OA
ATOM     20  C   UNL     1      45.723  79.790  42.296  0.00  0.00    +0.000 C 
ATOM     21  C   UNL     1      51.111  83.554  41.432  0.00  0.00    +0.000 C 
ENDROOT
BRANCH   1  23
ATOM     22  C   UNL     1      52.549  82.898  43.115  0.00  0.00    +0.072 C 
ATOM     23  C   UNL     1      51.373  82.851  44.011  0.00  0.00    +0.151 C 
ATOM     24  O   UNL     1      51.577  82.791  45.194  0.00  0.00    -0.296 OA
ENDBRANCH   1  23
TORSDOF 1
