REMARK  Name = Ganciclovir
REMARK  5 active torsions:
REMARK  status: ('A' for Active; 'I' for Inactive)
REMARK    1  A    between atoms: N_5  and  C_6
REMARK    2  A    between atoms: C_6  and  O_7
REMARK    3  A    between atoms: O_7  and  C_8
REMARK    4  A    between atoms: C_8  and  C_9
REMARK    5  A    between atoms: C_8  and  C_11
REMARK                            x       y       z     vdW  Elec       q    Type
REMARK                         _______ _______ _______ _____ _____    ______ ____
ROOT
ATOM      1  C   UNL     1      48.064  82.920  40.487  0.00  0.00    +0.182 A 
ATOM      2  N   UNL     1      47.155  83.018  39.494  0.00  0.00    -0.217 NA
ATOM      3  C   UNL     1      46.379  81.933  39.511  0.00  0.00    +0.175 A 
ATOM      4  C   UNL     1      46.841  81.155  40.552  0.00  0.00    +0.172 A 
ATOM      5  N   UNL     1      47.874  81.769  41.144  0.00  0.00    -0.268 N 
ATOM      6  N   UNL     1      46.205  79.971  40.783  0.00  0.00    -0.192 NA
ATOM      7  C   UNL     1      45.168  79.587  40.017  0.00  0.00    +0.261 A 
ATOM      8  N   UNL     1      44.703  80.332  38.996  0.00  0.00    -0.171 NA
ATOM      9  C   UNL     1      45.304  81.505  38.738  0.00  0.00    +0.302 A 
ATOM     10  O   UNL     1      44.880  82.216  37.783  0.00  0.00    -0.263 OA
ATOM     11  N   UNL     1      44.574  78.326  40.348  0.00  0.00    -0.086 NA
ENDROOT
BRANCH   5  12
ATOM     12  C   UNL     1      48.596  81.233  42.272  0.00  0.00    +0.258 C 
BRANCH  12  13
ATOM     13  O   UNL     1      49.557  82.102  42.754  0.00  0.00    -0.329 OA
BRANCH  13  14
ATOM     14  C   UNL     1      50.750  81.441  42.864  0.00  0.00    +0.183 C 
BRANCH  14  15
ATOM     15  C   UNL     1      50.912  81.014  44.311  0.00  0.00    +0.214 C 
ATOM     16  O   UNL     1      51.159  82.165  45.055  0.00  0.00    -0.218 OA
ENDBRANCH  14  15
BRANCH  14  17
ATOM     17  C   UNL     1      51.920  82.281  42.420  0.00  0.00    +0.214 C 
ATOM     18  O   UNL     1      51.669  82.662  41.096  0.00  0.00    -0.218 OA
ENDBRANCH  14  17
ENDBRANCH  13  14
ENDBRANCH  12  13
ENDBRANCH   5  12
TORSDOF 5
