REMARK  Name = Gatifloxacin
REMARK  4 active torsions:
REMARK  status: ('A' for Active; 'I' for Inactive)
REMARK    1  A    between atoms: N_4  and  C_8
REMARK    2  A    between atoms: C_13  and  O_14
REMARK    3  A    between atoms: N_16  and  C_24
REMARK    4  A    between atoms: C_18  and  C_21
REMARK                            x       y       z     vdW  Elec       q    Type
REMARK                         _______ _______ _______ _____ _____    ______ ____
ROOT
ATOM      1  C   UNL     1      42.660  78.005  39.445  0.00  0.00    +0.112 A 
ATOM      2  C   UNL     1      42.484  78.911  38.434  0.00  0.00    +0.157 A 
ATOM      3  C   UNL     1      43.349  79.955  38.199  0.00  0.00    +0.036 A 
ATOM      4  C   UNL     1      44.448  80.091  39.019  0.00  0.00    +0.060 A 
ATOM      5  C   UNL     1      44.665  79.182  40.067  0.00  0.00    +0.099 A 
ATOM      6  C   UNL     1      43.767  78.159  40.270  0.00  0.00    +0.170 A 
ATOM      7  N   UNL     1      45.779  79.356  40.838  0.00  0.00    -0.325 N 
ATOM      8  C   UNL     1      46.650  80.379  40.618  0.00  0.00    +0.086 A 
ATOM      9  C   UNL     1      46.433  81.273  39.596  0.00  0.00    +0.136 A 
ATOM     10  C   UNL     1      45.334  81.119  38.806  0.00  0.00    +0.205 A 
ATOM     11  O   UNL     1      45.084  81.908  37.849  0.00  0.00    -0.286 OA
ATOM     12  F   UNL     1      41.439  78.800  37.591  0.00  0.00    -0.203 F 
ENDROOT
BRANCH   1  16
ATOM     13  C   UNL     1      39.630  74.977  37.356  0.00  0.00    +0.021 C 
ATOM     14  C   UNL     1      40.941  75.569  37.825  0.00  0.00    +0.093 C 
ATOM     15  C   UNL     1      40.616  76.696  38.766  0.00  0.00    +0.108 C 
ATOM     16  N   UNL     1      41.768  76.939  39.659  0.00  0.00    -0.300 N 
ATOM     17  C   UNL     1      41.893  75.880  40.651  0.00  0.00    +0.110 C 
ATOM     18  C   UNL     1      41.381  74.597  39.962  0.00  0.00    +0.110 C 
ATOM     19  N   UNL     1      41.735  74.574  38.551  0.00  0.00    -0.216 NA
ENDBRANCH   1  16
BRANCH   9  20
ATOM     20  C   UNL     1      47.377  82.363  39.379  0.00  0.00    +0.392 C 
ATOM     21  O   UNL     1      48.329  82.512  40.210  0.00  0.00    -0.240 OA
ATOM     22  O   UNL     1      47.226  83.199  38.296  0.00  0.00    -0.240 OA
ENDBRANCH   9  20
BRANCH   7  23
ATOM     23  C   UNL     1      46.116  78.353  41.846  0.00  0.00    +0.086 C 
ATOM     24  C   UNL     1      47.328  78.556  42.627  0.00  0.00    +0.024 C 
ATOM     25  C   UNL     1      47.445  77.572  41.559  0.00  0.00    +0.024 C 
ENDBRANCH   7  23
BRANCH   6  26
ATOM     26  O   UNL     1      43.969  77.282  41.339  0.00  0.00    -0.469 OA
ATOM     27  C   UNL     1      44.940  76.238  41.224  0.00  0.00    +0.253 C 
ENDBRANCH   6  26
TORSDOF 4
