REMARK  Name = GDC-0199
REMARK  13 active torsions:
REMARK  status: ('A' for Active; 'I' for Inactive)
REMARK    1  A    between atoms: C_5  and  C_15
REMARK    2  A    between atoms: C_6  and  C_8
REMARK    3  A    between atoms: C_15  and  N_16
REMARK    4  A    between atoms: N_19  and  C_22
REMARK    5  A    between atoms: C_24  and  O_51
REMARK    6  A    between atoms: C_25  and  C_28
REMARK    7  A    between atoms: N_30  and  S_31
REMARK    8  A    between atoms: S_31  and  C_34
REMARK    9  A    between atoms: C_36  and  N_48
REMARK   10  A    between atoms: C_37  and  N_40
REMARK   11  A    between atoms: N_40  and  C_41
REMARK   12  A    between atoms: C_41  and  C_42
REMARK   13  A    between atoms: O_51  and  C_52
REMARK                            x       y       z     vdW  Elec       q    Type
REMARK                         _______ _______ _______ _____ _____    ______ ____
ROOT
ATOM      1  C   UNL     1      45.132  78.492  39.713  0.00  0.00    +0.051 A 
ATOM      2  C   UNL     1      44.293  77.712  40.504  0.00  0.00    +0.052 A 
ATOM      3  C   UNL     1      42.946  77.519  40.197  0.00  0.00    +0.151 A 
ATOM      4  C   UNL     1      42.372  78.094  39.090  0.00  0.00    +0.091 A 
ATOM      5  C   UNL     1      43.221  78.869  38.310  0.00  0.00    +0.009 A 
ATOM      6  C   UNL     1      44.551  79.065  38.605  0.00  0.00    +0.015 A 
ENDROOT
BRANCH   1  10
ATOM      7  N   UNL     1      48.187  80.538  40.959  0.00  0.00    -0.266 NA
ATOM      8  C   UNL     1      48.553  79.868  39.776  0.00  0.00    +0.094 C 
ATOM      9  C   UNL     1      47.453  79.092  39.084  0.00  0.00    +0.108 C 
ATOM     10  N   UNL     1      46.489  78.687  40.068  0.00  0.00    -0.305 N 
ATOM     11  C   UNL     1      46.958  78.509  41.422  0.00  0.00    +0.108 C 
ATOM     12  C   UNL     1      47.425  79.885  41.937  0.00  0.00    +0.094 C 
BRANCH   7  13
ATOM     13  C   UNL     1      48.056  81.977  40.870  0.00  0.00    +0.095 C 
BRANCH  13  18
ATOM     14  C   UNL     1      48.670  85.962  43.561  0.00  0.00    +0.000 C 
ATOM     15  C   UNL     1      48.075  84.673  44.143  0.00  0.00    +0.004 C 
ATOM     16  C   UNL     1      46.848  84.254  43.371  0.00  0.00    +0.005 C 
ATOM     17  C   UNL     1      46.954  82.747  43.093  0.00  0.00    +0.023 C 
ATOM     18  C   UNL     1      48.144  82.621  42.191  0.00  0.00    -0.032 C 
ATOM     19  C   UNL     1      49.280  83.080  42.674  0.00  0.00    -0.029 C 
ATOM     20  C   UNL     1      49.175  83.650  44.072  0.00  0.00    +0.026 C 
ATOM     21  C   UNL     1      47.632  84.921  45.574  0.00  0.00    +0.000 C 
BRANCH  19  22
ATOM     22  C   UNL     1      50.548  83.113  41.961  0.00  0.00    -0.004 A 
ATOM     23  C   UNL     1      51.588  82.237  42.314  0.00  0.00    +0.001 A 
ATOM     24  C   UNL     1      52.810  82.271  41.668  0.00  0.00    +0.011 A 
ATOM     25  C   UNL     1      53.045  83.170  40.651  0.00  0.00    +0.058 A 
ATOM     26  C   UNL     1      52.051  84.024  40.297  0.00  0.00    +0.011 A 
ATOM     27  C   UNL     1      50.852  83.983  40.940  0.00  0.00    +0.001 A 
ATOM     28 CL   UNL     1      54.594  83.228  39.814  0.00  0.00    -0.082 Cl
ENDBRANCH  19  22
ENDBRANCH  13  18
ENDBRANCH   7  13
ENDBRANCH   1  10
BRANCH   4  29
ATOM     29  C   UNL     1      40.999  77.950  38.662  0.00  0.00    +0.289 C 
ATOM     30  O   UNL     1      40.124  77.716  39.565  0.00  0.00    -0.267 OA
ATOM     31  N   UNL     1      40.492  78.035  37.359  0.00  0.00    -0.055 NA
BRANCH  31  32
ATOM     32  S   UNL     1      38.928  77.487  36.890  0.00  0.00    +0.096 S 
ATOM     33  O   UNL     1      37.945  77.945  37.922  0.00  0.00    -0.148 OA
ATOM     34  O   UNL     1      38.529  78.019  35.549  0.00  0.00    -0.148 OA
BRANCH  32  35
ATOM     35  C   UNL     1      38.860  75.751  36.788  0.00  0.00    +0.129 A 
ATOM     36  C   UNL     1      39.355  75.142  35.665  0.00  0.00    +0.046 A 
ATOM     37  C   UNL     1      39.347  73.743  35.488  0.00  0.00    +0.159 A 
ATOM     38  C   UNL     1      38.819  72.992  36.496  0.00  0.00    +0.088 A 
ATOM     39  C   UNL     1      38.318  73.621  37.633  0.00  0.00    +0.019 A 
ATOM     40  C   UNL     1      38.325  74.988  37.806  0.00  0.00    +0.022 A 
BRANCH  37  41
ATOM     41  N   UNL     1      39.880  73.218  34.299  0.00  0.00    +0.059 N 
ATOM     42  O   UNL     1      39.950  71.952  34.202  0.00  0.00    -0.126 OA
ATOM     43  O   UNL     1      40.316  73.956  33.271  0.00  0.00    -0.126 OA
ENDBRANCH  37  41
BRANCH  38  44
ATOM     44  N   UNL     1      38.746  71.587  36.434  0.00  0.00    -0.236 NA
BRANCH  44  45
ATOM     45  C   UNL     1      38.206  70.756  37.507  0.00  0.00    +0.112 C 
BRANCH  45  46
ATOM     46  C   UNL     1      37.400  69.621  36.976  0.00  0.00    +0.027 C 
ATOM     47  C   UNL     1      36.716  68.850  38.109  0.00  0.00    +0.034 C 
ATOM     48  C   UNL     1      37.759  68.190  38.991  0.00  0.00    +0.142 C 
ATOM     49  O   UNL     1      38.575  67.351  38.254  0.00  0.00    -0.354 OA
ATOM     50  C   UNL     1      39.215  67.972  37.211  0.00  0.00    +0.142 C 
ATOM     51  C   UNL     1      38.290  68.657  36.247  0.00  0.00    +0.034 C 
ENDBRANCH  45  46
ENDBRANCH  44  45
ENDBRANCH  38  44
ENDBRANCH  32  35
ENDBRANCH  31  32
ENDBRANCH   4  29
BRANCH   3  52
ATOM     52  O   UNL     1      42.172  76.743  41.011  0.00  0.00    -0.452 OA
BRANCH  52  53
ATOM     53  C   UNL     1      42.479  75.474  41.421  0.00  0.00    +0.164 A 
ATOM     54  C   UNL     1      41.653  74.731  42.233  0.00  0.00    +0.138 A 
ATOM     55  N   UNL     1      41.992  73.499  42.607  0.00  0.00    -0.222 NA
ATOM     56  C   UNL     1      43.139  72.900  42.229  0.00  0.00    +0.163 A 
ATOM     57  C   UNL     1      44.013  73.588  41.415  0.00  0.00    +0.040 A 
ATOM     58  C   UNL     1      43.671  74.861  41.024  0.00  0.00    +0.042 A 
ATOM     59  C   UNL     1      45.090  72.748  41.186  0.00  0.00    +0.024 A 
ATOM     60  C   UNL     1      44.860  71.581  41.854  0.00  0.00    +0.101 A 
ATOM     61  N   UNL     1      43.675  71.705  42.472  0.00  0.00    -0.225 NA
ENDBRANCH  52  53
ENDBRANCH   3  52
TORSDOF 13
