REMARK  Name = Gefitinib
REMARK  7 active torsions:
REMARK  status: ('A' for Active; 'I' for Inactive)
REMARK    1  A    between atoms: O_2  and  C_3
REMARK    2  A    between atoms: C_4  and  O_22
REMARK    3  A    between atoms: N_13  and  C_14
REMARK    4  A    between atoms: O_22  and  C_23
REMARK    5  A    between atoms: C_23  and  C_24
REMARK    6  A    between atoms: C_24  and  C_25
REMARK    7  A    between atoms: C_25  and  N_26
REMARK                            x       y       z     vdW  Elec       q    Type
REMARK                         _______ _______ _______ _____ _____    ______ ____
ROOT
ATOM      1  C   UNL     1      43.647  78.865  39.255  0.00  0.00    +0.174 A 
ATOM      2  C   UNL     1      44.342  78.540  40.422  0.00  0.00    +0.172 A 
ATOM      3  C   UNL     1      45.403  79.335  40.787  0.00  0.00    +0.044 A 
ATOM      4  C   UNL     1      45.813  80.447  40.047  0.00  0.00    +0.054 A 
ATOM      5  C   UNL     1      45.087  80.727  38.896  0.00  0.00    +0.089 A 
ATOM      6  C   UNL     1      44.024  79.943  38.514  0.00  0.00    +0.059 A 
ATOM      7  N   UNL     1      45.434  81.783  38.142  0.00  0.00    -0.224 NA
ATOM      8  C   UNL     1      46.467  82.578  38.475  0.00  0.00    +0.200 A 
ATOM      9  N   UNL     1      47.145  82.281  39.589  0.00  0.00    -0.207 NA
ATOM     10  C   UNL     1      46.869  81.241  40.407  0.00  0.00    +0.155 A 
ATOM     11  N   UNL     1      47.632  80.965  41.557  0.00  0.00    -0.194 NA
ENDROOT
BRANCH  11  12
ATOM     12  C   UNL     1      48.633  81.874  42.070  0.00  0.00    +0.073 A 
ATOM     13  C   UNL     1      48.294  83.093  42.600  0.00  0.00    +0.030 A 
ATOM     14  C   UNL     1      49.332  83.910  43.044  0.00  0.00    +0.086 A 
ATOM     15  C   UNL     1      50.650  83.520  42.959  0.00  0.00    +0.151 A 
ATOM     16  C   UNL     1      50.967  82.281  42.419  0.00  0.00    +0.032 A 
ATOM     17  C   UNL     1      49.960  81.464  41.977  0.00  0.00    +0.019 A 
ATOM     18  F   UNL     1      51.638  84.314  43.388  0.00  0.00    -0.203 F 
ATOM     19 CL   UNL     1      48.897  85.470  43.721  0.00  0.00    -0.080 Cl
ENDBRANCH  11  12
BRANCH   1  21
ATOM     20  C   UNL     1      41.601  78.594  37.966  0.00  0.00    +0.253 C 
ATOM     21  O   UNL     1      42.570  78.082  38.858  0.00  0.00    -0.468 OA
ENDBRANCH   1  21
BRANCH   2  22
ATOM     22  O   UNL     1      43.929  77.475  41.115  0.00  0.00    -0.472 OA
BRANCH  22  23
ATOM     23  C   UNL     1      44.590  76.482  41.751  0.00  0.00    +0.207 C 
BRANCH  23  24
ATOM     24  C   UNL     1      43.729  75.603  42.655  0.00  0.00    +0.065 C 
BRANCH  24  25
ATOM     25  C   UNL     1      43.677  74.203  42.106  0.00  0.00    +0.076 C 
BRANCH  25  26
ATOM     26  N   UNL     1      42.505  73.501  42.493  0.00  0.00    -0.268 NA
ATOM     27  C   UNL     1      42.831  72.194  43.061  0.00  0.00    +0.105 C 
ATOM     28  C   UNL     1      42.997  71.198  41.936  0.00  0.00    +0.159 C 
ATOM     29  O   UNL     1      41.685  71.008  41.442  0.00  0.00    -0.351 OA
ATOM     30  C   UNL     1      41.380  72.146  40.747  0.00  0.00    +0.159 C 
ATOM     31  C   UNL     1      41.469  73.428  41.528  0.00  0.00    +0.105 C 
ENDBRANCH  25  26
ENDBRANCH  24  25
ENDBRANCH  23  24
ENDBRANCH  22  23
ENDBRANCH   2  22
TORSDOF 7
