REMARK  Name = Gemcitabine
REMARK  2 active torsions:
REMARK  status: ('A' for Active; 'I' for Inactive)
REMARK    1  A    between atoms: N_3  and  C_9
REMARK    2  A    between atoms: C_12  and  C_14
REMARK                            x       y       z     vdW  Elec       q    Type
REMARK                         _______ _______ _______ _____ _____    ______ ____
ROOT
ATOM      1  C   UNL     1      47.807  81.996  40.541  0.00  0.00    +0.274 C 
ATOM      2  C   UNL     1      47.504  82.649  41.852  0.00  0.00    +0.338 C 
ATOM      3  C   UNL     1      48.424  81.922  42.803  0.00  0.00    +0.247 C 
ATOM      4  C   UNL     1      49.468  81.364  41.900  0.00  0.00    +0.186 C 
ATOM      5  O   UNL     1      49.007  81.358  40.620  0.00  0.00    -0.328 OA
ATOM      6  O   UNL     1      47.736  80.910  43.498  0.00  0.00    -0.214 OA
ATOM      7  F   UNL     1      47.749  84.007  41.837  0.00  0.00    -0.197 F 
ATOM      8  F   UNL     1      46.198  82.435  42.273  0.00  0.00    -0.197 F 
ENDROOT
BRANCH   1  11
ATOM      9  C   UNL     1      45.399  79.184  40.419  0.00  0.00    +0.057 A 
ATOM     10  C   UNL     1      46.461  79.975  40.801  0.00  0.00    +0.085 A 
ATOM     11  N   UNL     1      46.706  81.127  40.179  0.00  0.00    -0.251 N 
ATOM     12  C   UNL     1      45.897  81.508  39.169  0.00  0.00    +0.353 A 
ATOM     13  O   UNL     1      46.112  82.599  38.565  0.00  0.00    -0.244 OA
ATOM     14  N   UNL     1      44.853  80.787  38.751  0.00  0.00    -0.174 NA
ATOM     15  C   UNL     1      44.612  79.613  39.393  0.00  0.00    +0.176 A 
ATOM     16  N   UNL     1      43.510  78.804  38.988  0.00  0.00    -0.107 NA
ENDBRANCH   1  11
BRANCH   4  17
ATOM     17  C   UNL     1      50.773  82.104  42.069  0.00  0.00    +0.214 C 
ATOM     18  O   UNL     1      51.106  82.824  40.929  0.00  0.00    -0.218 OA
ENDBRANCH   4  17
TORSDOF 2
