REMARK  Name = Gemfibrozil
REMARK  6 active torsions:
REMARK  status: ('A' for Active; 'I' for Inactive)
REMARK    1  A    between atoms: C_4  and  O_9
REMARK    2  A    between atoms: O_9  and  C_10
REMARK    3  A    between atoms: C_10  and  C_11
REMARK    4  A    between atoms: C_11  and  C_12
REMARK    5  A    between atoms: C_12  and  C_13
REMARK    6  A    between atoms: C_13  and  C_16
REMARK                            x       y       z     vdW  Elec       q    Type
REMARK                         _______ _______ _______ _____ _____    ______ ____
ROOT
ATOM      1  O   UNL     1      48.534  81.480  41.636  0.00  0.00    -0.476 OA
ENDROOT
BRANCH   1   5
ATOM      2  C   UNL     1      48.039  85.791  44.012  0.00  0.00    +0.031 C 
ATOM      3  C   UNL     1      48.888  84.672  43.485  0.00  0.00    -0.019 A 
ATOM      4  C   UNL     1      48.286  83.612  42.810  0.00  0.00    +0.032 A 
ATOM      5  C   UNL     1      49.026  82.564  42.309  0.00  0.00    +0.134 A 
ATOM      6  C   UNL     1      50.416  82.629  42.519  0.00  0.00    +0.012 A 
ATOM      7  C   UNL     1      51.005  83.663  43.177  0.00  0.00    -0.002 A 
ATOM      8  C   UNL     1      50.245  84.695  43.666  0.00  0.00    -0.004 A 
ATOM      9  C   UNL     1      51.276  81.516  41.996  0.00  0.00    +0.034 C 
ENDBRANCH   1   5
BRANCH   1  10
ATOM     10  C   UNL     1      47.365  80.779  41.720  0.00  0.00    +0.205 C 
BRANCH  10  11
ATOM     11  C   UNL     1      46.733  80.306  40.451  0.00  0.00    +0.048 C 
BRANCH  11  12
ATOM     12  C   UNL     1      45.386  79.706  40.785  0.00  0.00    +0.015 C 
BRANCH  12  13
ATOM     13  C   UNL     1      44.678  79.170  39.571  0.00  0.00    +0.094 C 
ATOM     14  C   UNL     1      45.535  78.224  38.767  0.00  0.00    +0.011 C 
ATOM     15  C   UNL     1      43.413  78.432  39.934  0.00  0.00    +0.011 C 
BRANCH  13  16
ATOM     16  C   UNL     1      44.323  80.304  38.692  0.00  0.00    +0.364 C 
ATOM     17  O   UNL     1      43.130  80.464  38.345  0.00  0.00    -0.246 OA
ATOM     18  O   UNL     1      45.246  81.224  38.215  0.00  0.00    -0.246 OA
ENDBRANCH  13  16
ENDBRANCH  12  13
ENDBRANCH  11  12
ENDBRANCH  10  11
ENDBRANCH   1  10
TORSDOF 6
