REMARK  Name = Gemifloxacin
REMARK  5 active torsions:
REMARK  status: ('A' for Active; 'I' for Inactive)
REMARK    1  A    between atoms: O_2  and  N_3
REMARK    2  A    between atoms: N_6  and  C_11
REMARK    3  A    between atoms: C_8  and  C_9
REMARK    4  A    between atoms: C_17  and  C_25
REMARK    5  A    between atoms: N_19  and  C_22
REMARK                            x       y       z     vdW  Elec       q    Type
REMARK                         _______ _______ _______ _____ _____    ______ ____
ROOT
ATOM      1  C   UNL     1      43.018  77.710  39.025  0.00  0.00    +0.161 A 
ATOM      2  C   UNL     1      42.740  78.593  38.001  0.00  0.00    +0.172 A 
ATOM      3  C   UNL     1      43.452  79.774  37.922  0.00  0.00    +0.039 A 
ATOM      4  C   UNL     1      44.427  80.050  38.864  0.00  0.00    +0.076 A 
ATOM      5  C   UNL     1      45.167  81.227  38.822  0.00  0.00    +0.206 A 
ATOM      6  O   UNL     1      44.931  82.035  37.909  0.00  0.00    -0.286 OA
ATOM      7  C   UNL     1      46.141  81.513  39.755  0.00  0.00    +0.136 A 
ATOM      8  C   UNL     1      46.355  80.576  40.744  0.00  0.00    +0.087 A 
ATOM      9  N   UNL     1      45.636  79.423  40.794  0.00  0.00    -0.313 N 
ATOM     10  C   UNL     1      44.687  79.151  39.878  0.00  0.00    +0.148 A 
ATOM     11  N   UNL     1      43.980  78.002  39.939  0.00  0.00    -0.211 NA
ATOM     12  F   UNL     1      41.771  78.273  37.100  0.00  0.00    -0.201 F 
ENDROOT
BRANCH   1  16
ATOM     13  N   UNL     1      39.446  74.616  38.042  0.00  0.00    -0.090 NA
ATOM     14  C   UNL     1      40.414  75.136  38.705  0.00  0.00    +0.097 C 
ATOM     15  C   UNL     1      41.421  76.019  38.019  0.00  0.00    +0.137 C 
ATOM     16  N   UNL     1      42.273  76.500  39.086  0.00  0.00    -0.286 N 
ATOM     17  C   UNL     1      42.194  75.526  40.162  0.00  0.00    +0.100 C 
ATOM     18  C   UNL     1      40.783  75.041  40.136  0.00  0.00    +0.080 C 
BRANCH  13  20
ATOM     19  C   UNL     1      38.262  73.985  36.002  0.00  0.00    +0.288 C 
ATOM     20  O   UNL     1      39.230  74.742  36.708  0.00  0.00    -0.374 OA
ENDBRANCH  13  20
BRANCH  18  21
ATOM     21  C   UNL     1      40.654  73.609  40.621  0.00  0.00    +0.117 C 
ATOM     22  N   UNL     1      41.867  73.156  41.256  0.00  0.00    -0.131 NA
ENDBRANCH  18  21
ENDBRANCH   1  16
BRANCH   9  23
ATOM     23  C   UNL     1      45.938  78.508  41.870  0.00  0.00    +0.087 C 
ATOM     24  C   UNL     1      47.153  77.683  41.871  0.00  0.00    +0.025 C 
ATOM     25  C   UNL     1      47.125  78.941  42.713  0.00  0.00    +0.025 C 
ENDBRANCH   9  23
BRANCH   7  26
ATOM     26  C   UNL     1      46.923  82.743  39.722  0.00  0.00    +0.392 C 
ATOM     27  O   UNL     1      46.829  83.506  38.751  0.00  0.00    -0.240 OA
ATOM     28  O   UNL     1      47.775  83.077  40.761  0.00  0.00    -0.240 OA
ENDBRANCH   7  26
TORSDOF 5
