REMARK  Name = Gentian_violet
REMARK  4 active torsions:
REMARK  status: ('A' for Active; 'I' for Inactive)
REMARK    1  A    between atoms: N_2  and  C_4
REMARK    2  A    between atoms: C_7  and  C_10
REMARK    3  A    between atoms: C_10  and  C_20
REMARK    4  A    between atoms: C_23  and  N_26
REMARK                            x       y       z     vdW  Elec       q    Type
REMARK                         _______ _______ _______ _____ _____    ______ ____
ROOT
ATOM      1  C   UNL     1      45.229  79.025  40.465  0.00  0.00    +0.000 C 
ATOM      2  C   UNL     1      44.174  79.123  39.710  0.00  0.00    +0.000 C 
ATOM      3  C   UNL     1      43.755  80.364  39.055  0.00  0.00    +0.001 C 
ATOM      4  C   UNL     1      42.715  80.441  38.250  0.00  0.00    +0.017 C 
ATOM      5  C   UNL     1      41.917  79.274  37.969  0.00  0.00    +0.056 C 
ATOM      6  N   UNL     1      40.904  79.372  37.178  0.00  0.00    -0.344 N 
ATOM      7  C   UNL     1      40.591  80.649  36.590  0.00  0.00    +0.126 C 
ATOM      8  C   UNL     1      40.133  78.173  36.926  0.00  0.00    +0.126 C 
ATOM      9  C   UNL     1      42.294  78.014  38.599  0.00  0.00    +0.017 C 
ATOM     10  C   UNL     1      43.348  77.940  39.412  0.00  0.00    +0.001 C 
ENDROOT
BRANCH   1  14
ATOM     11  C   UNL     1      47.886  82.171  41.347  0.00  0.00    +0.048 A 
ATOM     12  C   UNL     1      47.353  81.410  42.377  0.00  0.00    +0.015 A 
ATOM     13  C   UNL     1      46.479  80.395  42.058  0.00  0.00    +0.001 A 
ATOM     14  C   UNL     1      46.139  80.139  40.748  0.00  0.00    +0.000 A 
ATOM     15  C   UNL     1      46.667  80.892  39.727  0.00  0.00    +0.001 A 
ATOM     16  C   UNL     1      47.544  81.911  40.043  0.00  0.00    +0.015 A 
BRANCH  11  18
ATOM     17  C   UNL     1      49.120  83.459  43.047  0.00  0.00    +0.112 C 
ATOM     18  N   UNL     1      48.788  83.217  41.681  0.00  0.00    -0.304 N 
ATOM     19  C   UNL     1      49.358  84.025  40.609  0.00  0.00    +0.112 C 
ENDBRANCH  11  18
ENDBRANCH   1  14
BRANCH   1  20
ATOM     20  C   UNL     1      45.527  77.768  41.139  0.00  0.00    +0.000 A 
ATOM     21  C   UNL     1      46.813  77.271  40.998  0.00  0.00    +0.001 A 
ATOM     22  C   UNL     1      47.211  76.111  41.621  0.00  0.00    +0.015 A 
ATOM     23  C   UNL     1      46.296  75.418  42.417  0.00  0.00    +0.048 A 
ATOM     24  C   UNL     1      45.004  75.897  42.572  0.00  0.00    +0.015 A 
ATOM     25  C   UNL     1      44.673  77.065  41.919  0.00  0.00    +0.001 A 
BRANCH  23  26
ATOM     26  N   UNL     1      46.676  74.224  43.074  0.00  0.00    -0.304 N 
ATOM     27  C   UNL     1      45.697  73.532  43.885  0.00  0.00    +0.112 C 
ATOM     28  C   UNL     1      48.025  73.695  42.945  0.00  0.00    +0.112 C 
ENDBRANCH  23  26
ENDBRANCH   1  20
TORSDOF 4
REMARK  Name = Gentian_violet
REMARK  4 active torsions:
REMARK  status: ('A' for Active; 'I' for Inactive)
REMARK    1  A    between atoms: N_2  and  C_4
REMARK    2  A    between atoms: C_7  and  C_10
REMARK    3  A    between atoms: C_10  and  C_20
REMARK    4  A    between atoms: C_23  and  N_26
REMARK                            x       y       z     vdW  Elec       q    Type
REMARK                         _______ _______ _______ _____ _____    ______ ____
ROOT
ATOM      1 CL   UNL     1      45.299  79.014  40.743  0.00  0.00    +0.000 Cl
ENDROOT
TORSDOF 0
