REMARK  Name = Gentamicin
REMARK  7 active torsions:
REMARK  status: ('A' for Active; 'I' for Inactive)
REMARK    1  A    between atoms: C_2  and  C_3
REMARK    2  A    between atoms: C_2  and  N_32
REMARK    3  A    between atoms: C_7  and  O_9
REMARK    4  A    between atoms: O_9  and  C_10
REMARK    5  A    between atoms: C_14  and  O_17
REMARK    6  A    between atoms: O_17  and  C_18
REMARK    7  A    between atoms: C_20  and  N_26
REMARK                            x       y       z     vdW  Elec       q    Type
REMARK                         _______ _______ _______ _____ _____    ______ ____
ROOT
ATOM      1  C   UNL     1      45.840  79.627  39.124  0.00  0.00    +0.168 C 
ATOM      2  C   UNL     1      44.938  80.794  38.877  0.00  0.00    +0.123 C 
ATOM      3  C   UNL     1      45.848  82.008  38.697  0.00  0.00    +0.043 C 
ATOM      4  C   UNL     1      47.096  81.924  39.518  0.00  0.00    +0.123 C 
ATOM      5  C   UNL     1      46.948  81.113  40.789  0.00  0.00    +0.168 C 
ATOM      6  C   UNL     1      46.315  79.754  40.561  0.00  0.00    +0.209 C 
ATOM      7  O   UNL     1      45.262  79.532  41.464  0.00  0.00    -0.218 OA
ATOM      8  N   UNL     1      47.387  83.295  39.979  0.00  0.00    -0.130 NA
ATOM      9  N   UNL     1      44.163  81.055  40.084  0.00  0.00    -0.130 NA
ENDROOT
BRANCH   1  10
ATOM     10  O   UNL     1      45.267  78.392  38.978  0.00  0.00    -0.328 OA
BRANCH  10  15
ATOM     11  C   UNL     1      42.740  76.645  40.522  0.00  0.00    +0.134 C 
ATOM     12  C   UNL     1      41.706  77.727  40.500  0.00  0.00    +0.033 C 
ATOM     13  C   UNL     1      41.565  78.109  39.022  0.00  0.00    +0.027 C 
ATOM     14  C   UNL     1      42.953  77.993  38.421  0.00  0.00    +0.148 C 
ATOM     15  C   UNL     1      43.977  78.285  39.467  0.00  0.00    +0.253 C 
ATOM     16  O   UNL     1      44.006  77.183  40.349  0.00  0.00    -0.331 OA
ATOM     17  N   UNL     1      42.985  78.895  37.291  0.00  0.00    -0.128 NA
BRANCH  11  19
ATOM     18  C   UNL     1      43.100  74.355  41.401  0.00  0.00    +0.021 C 
ATOM     19  C   UNL     1      42.614  75.781  41.719  0.00  0.00    +0.100 C 
BRANCH  19  20
ATOM     20  N   UNL     1      43.147  76.244  42.943  0.00  0.00    -0.215 NA
ATOM     21  C   UNL     1      44.527  76.076  43.203  0.00  0.00    +0.107 C 
ENDBRANCH  19  20
ENDBRANCH  11  19
ENDBRANCH  10  15
ENDBRANCH   1  10
BRANCH   5  22
ATOM     22  O   UNL     1      48.230  80.867  41.248  0.00  0.00    -0.327 OA
BRANCH  22  23
ATOM     23  C   UNL     1      48.687  81.722  42.232  0.00  0.00    +0.268 C 
ATOM     24  C   UNL     1      50.166  81.591  42.482  0.00  0.00    +0.226 C 
ATOM     25  C   UNL     1      50.431  82.378  43.765  0.00  0.00    +0.138 C 
ATOM     26  C   UNL     1      50.069  83.831  43.535  0.00  0.00    +0.171 C 
ATOM     27  C   UNL     1      49.198  84.012  42.327  0.00  0.00    +0.176 C 
ATOM     28  O   UNL     1      48.364  83.013  42.019  0.00  0.00    -0.326 OA
ATOM     29  C   UNL     1      49.416  84.471  44.739  0.00  0.00    +0.037 C 
ATOM     30  O   UNL     1      51.266  84.505  43.292  0.00  0.00    -0.222 OA
ATOM     31  O   UNL     1      50.867  82.222  41.474  0.00  0.00    -0.216 OA
BRANCH  25  32
ATOM     32  N   UNL     1      51.706  82.178  44.341  0.00  0.00    -0.213 NA
ATOM     33  C   UNL     1      52.229  80.861  44.275  0.00  0.00    +0.108 C 
ENDBRANCH  25  32
ENDBRANCH  22  23
ENDBRANCH   5  22
TORSDOF 7
