REMARK  Name = Gepirone
REMARK  5 active torsions:
REMARK  status: ('A' for Active; 'I' for Inactive)
REMARK    1  A    between atoms: N_6  and  C_10
REMARK    2  A    between atoms: C_10  and  C_11
REMARK    3  A    between atoms: C_11  and  C_12
REMARK    4  A    between atoms: C_12  and  C_13
REMARK    5  A    between atoms: C_13  and  N_14
REMARK                            x       y       z     vdW  Elec       q    Type
REMARK                         _______ _______ _______ _____ _____    ______ ____
ROOT
ATOM      1  C   UNL     1      46.822  80.751  40.401  0.00  0.00    +0.019 C 
ENDROOT
BRANCH   1   2
ATOM      2  C   UNL     1      47.028  80.950  41.888  0.00  0.00    +0.023 C 
BRANCH   2   3
ATOM      3  C   UNL     1      48.501  80.976  42.245  0.00  0.00    +0.101 C 
BRANCH   3   9
ATOM      4  C   UNL     1      50.639  83.442  44.421  0.00  0.00    +0.001 C 
ATOM      5  C   UNL     1      50.291  84.518  43.412  0.00  0.00    +0.017 C 
ATOM      6  C   UNL     1      50.834  84.047  42.071  0.00  0.00    +0.086 C 
ATOM      7  C   UNL     1      50.366  82.651  41.864  0.00  0.00    +0.231 C 
ATOM      8  O   UNL     1      51.092  81.762  41.371  0.00  0.00    -0.274 OA
ATOM      9  N   UNL     1      49.021  82.325  42.252  0.00  0.00    -0.230 N 
ATOM     10  C   UNL     1      48.204  83.433  42.657  0.00  0.00    +0.231 C 
ATOM     11  O   UNL     1      46.968  83.366  42.469  0.00  0.00    -0.274 OA
ATOM     12  C   UNL     1      48.786  84.645  43.287  0.00  0.00    +0.086 C 
ATOM     13  C   UNL     1      50.870  85.851  43.806  0.00  0.00    +0.001 C 
ENDBRANCH   3   9
ENDBRANCH   2   3
ENDBRANCH   1   2
BRANCH   1  14
ATOM     14  C   UNL     1      46.244  79.395  40.180  0.00  0.00    +0.072 C 
BRANCH  14  15
ATOM     15  N   UNL     1      44.835  79.326  40.154  0.00  0.00    -0.270 NA
ATOM     16  C   UNL     1      44.170  79.749  38.992  0.00  0.00    +0.094 C 
ATOM     17  C   UNL     1      43.624  78.693  38.093  0.00  0.00    +0.111 C 
ATOM     18  N   UNL     1      43.057  77.626  38.910  0.00  0.00    -0.275 N 
ATOM     19  C   UNL     1      43.742  77.132  40.069  0.00  0.00    +0.111 C 
ATOM     20  C   UNL     1      44.221  78.292  40.906  0.00  0.00    +0.094 C 
ATOM     21  C   UNL     1      41.783  77.081  38.516  0.00  0.00    +0.220 A 
ATOM     22  N   UNL     1      41.058  77.773  37.642  0.00  0.00    -0.212 NA
ATOM     23  C   UNL     1      39.866  77.325  37.234  0.00  0.00    +0.103 A 
ATOM     24  C   UNL     1      39.380  76.129  37.725  0.00  0.00    +0.041 A 
ATOM     25  C   UNL     1      40.151  75.415  38.640  0.00  0.00    +0.103 A 
ATOM     26  N   UNL     1      41.343  75.916  39.014  0.00  0.00    -0.212 NA
ENDBRANCH  14  15
ENDBRANCH   1  14
TORSDOF 5
