REMARK  Name = Gestrinone
REMARK  2 active torsions:
REMARK  status: ('A' for Active; 'I' for Inactive)
REMARK    1  A    between atoms: C_2  and  C_3
REMARK    2  A    between atoms: C_20  and  C_21
REMARK                            x       y       z     vdW  Elec       q    Type
REMARK                         _______ _______ _______ _____ _____    ______ ____
ROOT
ATOM      1  C   UNL     1      49.786  82.150  42.679  0.00  0.00    +0.055 C 
ATOM      2  C   UNL     1      49.079  80.865  42.990  0.00  0.00    -0.024 C 
ATOM      3  C   UNL     1      48.022  80.412  42.411  0.00  0.00    -0.009 C 
ATOM      4  C   UNL     1      47.406  81.177  41.344  0.00  0.00    -0.027 C 
ATOM      5  C   UNL     1      46.374  80.697  40.653  0.00  0.00    -0.030 C 
ATOM      6  C   UNL     1      45.836  79.342  40.983  0.00  0.00    +0.034 C 
ATOM      7  C   UNL     1      44.452  79.141  40.458  0.00  0.00    +0.074 C 
ATOM      8  C   UNL     1      44.259  79.647  39.078  0.00  0.00    +0.173 C 
ATOM      9  O   UNL     1      43.712  79.018  38.153  0.00  0.00    -0.291 OA
ATOM     10  C   UNL     1      44.760  80.992  38.815  0.00  0.00    +0.033 C 
ATOM     11  C   UNL     1      45.742  81.438  39.569  0.00  0.00    -0.024 C 
ATOM     12  C   UNL     1      46.253  82.824  39.278  0.00  0.00    +0.026 C 
ATOM     13  C   UNL     1      47.767  82.707  39.514  0.00  0.00    +0.009 C 
ATOM     14  C   UNL     1      47.907  82.500  41.022  0.00  0.00    +0.023 C 
ATOM     15  C   UNL     1      49.287  82.838  41.477  0.00  0.00    +0.011 C 
ATOM     16  C   UNL     1      49.296  84.314  41.835  0.00  0.00    +0.004 C 
ATOM     17  C   UNL     1      49.657  84.424  43.293  0.00  0.00    +0.043 C 
ATOM     18  C   UNL     1      49.380  83.065  43.809  0.00  0.00    +0.183 C 
ATOM     19  O   UNL     1      48.004  82.868  44.053  0.00  0.00    -0.212 OA
ENDROOT
BRANCH   1  21
ATOM     20  C   UNL     1      51.764  80.885  41.675  0.00  0.00    +0.000 C 
ATOM     21  C   UNL     1      51.237  81.803  42.687  0.00  0.00    +0.007 C 
ENDBRANCH   1  21
BRANCH  18  22
ATOM     22  C   UNL     1      50.161  82.813  45.020  0.00  0.00    -0.049 C 
ATOM     23  C   UNL     1      50.794  82.621  46.026  0.00  0.00    -0.012 C 
ENDBRANCH  18  22
TORSDOF 2
