REMARK  Name = GHRP-2
REMARK  21 active torsions:
REMARK  status: ('A' for Active; 'I' for Inactive)
REMARK    1  A    between atoms: C_2  and  C_3
REMARK    2  A    between atoms: N_5  and  C_6
REMARK    3  A    between atoms: C_6  and  C_7
REMARK    4  A    between atoms: C_6  and  C_18
REMARK    5  A    between atoms: C_7  and  C_8
REMARK    6  A    between atoms: N_20  and  C_21
REMARK    7  A    between atoms: C_21  and  C_23
REMARK    8  A    between atoms: N_25  and  C_26
REMARK    9  A    between atoms: C_26  and  C_27
REMARK   10  A    between atoms: C_26  and  C_37
REMARK   11  A    between atoms: C_27  and  C_28
REMARK   12  A    between atoms: N_39  and  C_40
REMARK   13  A    between atoms: C_40  and  C_41
REMARK   14  A    between atoms: C_40  and  C_48
REMARK   15  A    between atoms: C_41  and  C_42
REMARK   16  A    between atoms: N_50  and  C_51
REMARK   17  A    between atoms: C_51  and  C_52
REMARK   18  A    between atoms: C_51  and  C_57
REMARK   19  A    between atoms: C_52  and  C_53
REMARK   20  A    between atoms: C_53  and  C_54
REMARK   21  A    between atoms: C_54  and  C_55
REMARK                            x       y       z     vdW  Elec       q    Type
REMARK                         _______ _______ _______ _____ _____    ______ ____
ROOT
ATOM      1  C   UNL     1      44.334  79.242  40.442  0.00  0.00    +0.177 C 
ENDROOT
BRANCH   1   2
ATOM      2  C   UNL     1      45.140  80.303  41.065  0.00  0.00    +0.262 C 
ATOM      3  O   UNL     1      44.624  81.151  41.819  0.00  0.00    -0.271 OA
ATOM      4  N   UNL     1      46.550  80.409  40.840  0.00  0.00    -0.196 NA
BRANCH   4   5
ATOM      5  C   UNL     1      47.402  81.466  41.243  0.00  0.00    +0.177 C 
BRANCH   5   6
ATOM      6  C   UNL     1      48.819  81.285  40.857  0.00  0.00    +0.262 C 
ATOM      7  O   UNL     1      49.092  80.541  39.858  0.00  0.00    -0.271 OA
ATOM      8  N   UNL     1      49.938  81.864  41.494  0.00  0.00    -0.196 NA
BRANCH   8   9
ATOM      9  C   UNL     1      51.046  81.096  42.063  0.00  0.00    +0.174 C 
BRANCH   9  10
ATOM     10  C   UNL     1      51.925  81.972  42.808  0.00  0.00    +0.281 C 
ATOM     11  O   UNL     1      51.511  82.729  43.749  0.00  0.00    -0.270 OA
ATOM     12  N   UNL     1      53.314  82.023  42.505  0.00  0.00    -0.086 NA
ENDBRANCH   9  10
BRANCH   9  13
ATOM     13  C   UNL     1      50.594  79.905  42.805  0.00  0.00    +0.031 C 
BRANCH  13  14
ATOM     14  C   UNL     1      50.740  78.578  42.179  0.00  0.00    +0.004 C 
BRANCH  14  15
ATOM     15  C   UNL     1      51.718  77.611  42.692  0.00  0.00    +0.021 C 
BRANCH  15  16
ATOM     16  C   UNL     1      51.246  76.208  42.902  0.00  0.00    +0.109 C 
ATOM     17  N   UNL     1      52.257  75.382  43.549  0.00  0.00    -0.131 NA
ENDBRANCH  15  16
ENDBRANCH  14  15
ENDBRANCH  13  14
ENDBRANCH   9  13
ENDBRANCH   8   9
ENDBRANCH   5   6
BRANCH   5  18
ATOM     18  C   UNL     1      47.145  81.812  42.661  0.00  0.00    +0.057 C 
BRANCH  18  19
ATOM     19  C   UNL     1      47.678  83.114  43.111  0.00  0.00    -0.020 A 
ATOM     20  C   UNL     1      47.581  83.537  44.420  0.00  0.00    -0.004 A 
ATOM     21  C   UNL     1      48.108  84.752  44.767  0.00  0.00    -0.000 A 
ATOM     22  C   UNL     1      48.744  85.586  43.846  0.00  0.00    -0.000 A 
ATOM     23  C   UNL     1      48.837  85.155  42.535  0.00  0.00    -0.000 A 
ATOM     24  C   UNL     1      48.300  83.930  42.207  0.00  0.00    -0.004 A 
ENDBRANCH  18  19
ENDBRANCH   5  18
ENDBRANCH   4   5
ENDBRANCH   1   2
BRANCH   1  27
ATOM     25  C   UNL     1      42.906  78.955  38.363  0.00  0.00    +0.262 C 
ATOM     26  O   UNL     1      43.415  78.751  37.184  0.00  0.00    -0.271 OA
ATOM     27  N   UNL     1      43.730  79.755  39.185  0.00  0.00    -0.196 NA
BRANCH  25  28
ATOM     28  C   UNL     1      41.605  78.377  38.696  0.00  0.00    +0.173 C 
ATOM     29  C   UNL     1      41.942  77.287  39.785  0.00  0.00    +0.033 C 
BRANCH  28  32
ATOM     30  C   UNL     1      39.741  76.984  37.766  0.00  0.00    +0.262 C 
ATOM     31  O   UNL     1      39.219  77.021  38.892  0.00  0.00    -0.271 OA
ATOM     32  N   UNL     1      41.049  77.625  37.613  0.00  0.00    -0.196 NA
BRANCH  30  33
ATOM     33  C   UNL     1      39.141  76.343  36.593  0.00  0.00    +0.177 C 
BRANCH  33  36
ATOM     34  C   UNL     1      39.256  73.856  36.390  0.00  0.00    +0.259 C 
ATOM     35  O   UNL     1      40.197  74.065  35.544  0.00  0.00    -0.272 OA
ATOM     36  N   UNL     1      38.680  74.990  36.964  0.00  0.00    -0.196 NA
BRANCH  34  38
ATOM     37  C   UNL     1      37.896  71.935  35.623  0.00  0.00    +0.030 C 
ATOM     38  C   UNL     1      38.875  72.466  36.672  0.00  0.00    +0.169 C 
ATOM     39  N   UNL     1      40.036  71.575  36.581  0.00  0.00    -0.123 NA
ENDBRANCH  34  38
ENDBRANCH  33  36
BRANCH  33  40
ATOM     40  C   UNL     1      37.889  77.141  36.161  0.00  0.00    +0.057 C 
BRANCH  40  41
ATOM     41  C   UNL     1      37.346  76.504  34.915  0.00  0.00    -0.020 A 
ATOM     42  C   UNL     1      37.831  76.860  33.672  0.00  0.00    -0.004 A 
ATOM     43  C   UNL     1      37.318  76.304  32.497  0.00  0.00    -0.000 A 
ATOM     44  C   UNL     1      37.811  76.685  31.267  0.00  0.00    -0.000 A 
ATOM     45  C   UNL     1      37.300  76.148  30.106  0.00  0.00    -0.000 A 
ATOM     46  C   UNL     1      36.275  75.208  30.170  0.00  0.00    -0.000 A 
ATOM     47  C   UNL     1      35.773  74.817  31.383  0.00  0.00    -0.000 A 
ATOM     48  C   UNL     1      36.299  75.369  32.552  0.00  0.00    -0.000 A 
ATOM     49  C   UNL     1      35.819  75.013  33.779  0.00  0.00    -0.000 A 
ATOM     50  C   UNL     1      36.339  75.576  34.950  0.00  0.00    -0.004 A 
ENDBRANCH  40  41
ENDBRANCH  33  40
ENDBRANCH  30  33
ENDBRANCH  28  32
ENDBRANCH  25  28
ENDBRANCH   1  27
BRANCH   1  51
ATOM     51  C   UNL     1      43.334  78.527  41.221  0.00  0.00    +0.059 C 
BRANCH  51  52
ATOM     52  C   UNL     1      43.757  77.544  42.207  0.00  0.00    +0.001 A 
ATOM     53  C   UNL     1      43.649  77.624  43.583  0.00  0.00    +0.095 A 
ATOM     54  N   UNL     1      44.126  76.490  44.118  0.00  0.00    -0.244 NA
ATOM     55  C   UNL     1      44.557  75.640  43.156  0.00  0.00    +0.081 A 
ATOM     56  C   UNL     1      45.129  74.384  43.183  0.00  0.00    +0.019 A 
ATOM     57  C   UNL     1      45.479  73.777  41.993  0.00  0.00    +0.002 A 
ATOM     58  C   UNL     1      45.271  74.393  40.778  0.00  0.00    +0.000 A 
ATOM     59  C   UNL     1      44.699  75.639  40.802  0.00  0.00    +0.001 A 
ATOM     60  C   UNL     1      44.324  76.305  41.957  0.00  0.00    +0.015 A 
ENDBRANCH  51  52
ENDBRANCH   1  51
TORSDOF 21
