REMARK  Name = Gitalin
REMARK  22 active torsions:
REMARK  status: ('A' for Active; 'I' for Inactive)
REMARK    1  A    between atoms: CG1_2  and  CB_3
REMARK    2  A    between atoms: CB_3  and  CA_5
REMARK    3  A    between atoms: CA_5  and  C_6
REMARK    4  A    between atoms: CA_5  and  N_45
REMARK    5  A    between atoms: N_8  and  CA_9
REMARK    6  A    between atoms: CA_9  and  CB_10
REMARK    7  A    between atoms: CA_9  and  C_13
REMARK    8  A    between atoms: N_15  and  CA_16
REMARK    9  A    between atoms: CA_16  and  C_18
REMARK   10  A    between atoms: N_20  and  CA_21
REMARK   11  A    between atoms: CA_21  and  CB_22
REMARK   12  A    between atoms: CA_21  and  C_26
REMARK   13  A    between atoms: CB_22  and  CG_23
REMARK   14  A    between atoms: N_28  and  CA_29
REMARK   15  A    between atoms: CA_29  and  CB_30
REMARK   16  A    between atoms: CA_29  and  C_34
REMARK   17  A    between atoms: CB_30  and  CG1_32
REMARK   18  A    between atoms: N_36  and  CA_37
REMARK   19  A    between atoms: CA_37  and  CB_38
REMARK   20  A    between atoms: CA_37  and  C_42
REMARK   21  A    between atoms: CB_38  and  CG_39
REMARK   22  A    between atoms: C_46  and  CA_48
REMARK                            x       y       z     vdW  Elec       q    Type
REMARK                         _______ _______ _______ _____ _____    ______ ____
ROOT
ATOM      1  C   ALA A   4      42.797  78.158  39.697  0.00  0.00    +0.262 C 
ATOM      2  O   ALA A   4      42.858  77.055  40.319  0.00  0.00    -0.271 OA
ATOM      3  N   LEU A   5      43.684  79.236  39.985  0.00  0.00    -0.196 NA
ENDROOT
BRANCH   1   4
ATOM      4  CA  ALA A   4      41.765  78.273  38.647  0.00  0.00    +0.173 C 
ATOM      5  CB  ALA A   4      42.458  78.487  37.282  0.00  0.00    +0.033 C 
BRANCH   4   8
ATOM      6  C   THR A   3      39.945  76.935  37.556  0.00  0.00    +0.264 C 
ATOM      7  O   THR A   3      39.720  77.934  36.775  0.00  0.00    -0.271 OA
ATOM      8  N   ALA A   4      40.951  77.065  38.545  0.00  0.00    -0.196 NA
BRANCH   6   9
ATOM      9  CA  THR A   3      39.115  75.731  37.330  0.00  0.00    +0.203 C 
BRANCH   9  12
ATOM     10  C   ILE A   2      37.248  76.085  35.636  0.00  0.00    +0.262 C 
ATOM     11  O   ILE A   2      36.496  76.288  36.676  0.00  0.00    -0.271 OA
ATOM     12  N   THR A   3      38.603  75.841  35.934  0.00  0.00    -0.194 NA
BRANCH  10  13
ATOM     13  CA  ILE A   2      36.660  76.115  34.287  0.00  0.00    +0.173 C 
BRANCH  13  14
ATOM     14  N   ILE A   2      35.365  75.427  34.340  0.00  0.00    -0.197 NA
ATOM     15  C   GLY A   1      35.245  74.088  33.911  0.00  0.00    +0.261 C 
ATOM     16  O   GLY A   1      36.317  73.458  33.608  0.00  0.00    -0.272 OA
BRANCH  15  17
ATOM     17  CA  GLY A   1      33.925  73.440  33.816  0.00  0.00    +0.196 C 
ATOM     18  N   GLY A   1      33.953  72.233  33.037  0.00  0.00    -0.121 NA
ENDBRANCH  15  17
ENDBRANCH  13  14
BRANCH  13  19
ATOM     19  CB  ILE A   2      36.508  77.439  33.632  0.00  0.00    +0.029 C 
ATOM     20  CG2 ILE A   2      36.049  77.432  32.210  0.00  0.00    +0.002 C 
BRANCH  19  22
ATOM     21  CD1 ILE A   2      36.311  79.403  35.088  0.00  0.00    +0.000 C 
ATOM     22  CG1 ILE A   2      35.536  78.335  34.397  0.00  0.00    +0.002 C 
ENDBRANCH  19  22
ENDBRANCH  13  19
ENDBRANCH  10  13
ENDBRANCH   9  12
BRANCH   9  23
ATOM     23  CB  THR A   3      40.079  74.532  37.260  0.00  0.00    +0.181 C 
ATOM     24  CG2 THR A   3      40.807  74.279  38.551  0.00  0.00    +0.038 C 
ATOM     25  OG1 THR A   3      39.337  73.384  36.899  0.00  0.00    -0.221 OA
ENDBRANCH   9  23
ENDBRANCH   6   9
ENDBRANCH   4   8
ENDBRANCH   1   4
BRANCH   3  26
ATOM     26  CA  LEU A   5      44.712  79.108  40.959  0.00  0.00    +0.173 C 
BRANCH  26  27
ATOM     27  C   LEU A   5      45.581  80.313  40.993  0.00  0.00    +0.262 C 
ATOM     28  O   LEU A   5      45.128  81.369  40.483  0.00  0.00    -0.271 OA
ATOM     29  N   ILE A   6      46.848  80.316  41.560  0.00  0.00    -0.196 NA
BRANCH  29  30
ATOM     30  CA  ILE A   6      47.733  81.514  41.337  0.00  0.00    +0.173 C 
BRANCH  30  31
ATOM     31  C   ILE A   6      48.946  81.250  42.129  0.00  0.00    +0.262 C 
ATOM     32  O   ILE A   6      49.382  80.016  42.145  0.00  0.00    -0.271 OA
ATOM     33  N   ASN A   7      49.732  82.113  42.893  0.00  0.00    -0.194 NA
BRANCH  33  34
ATOM     34  CA  ASN A   7      51.004  81.658  43.522  0.00  0.00    +0.207 C 
BRANCH  34  35
ATOM     35  C   ASN A   7      52.130  82.420  42.952  0.00  0.00    +0.385 C 
ATOM     36  O   ASN A   7      53.298  82.148  43.262  0.00  0.00    -0.244 OA
ATOM     37  OXT ASN A   7      51.917  83.457  42.058  0.00  0.00    -0.244 OA
ENDBRANCH  34  35
BRANCH  34  38
ATOM     38  CB  ASN A   7      50.793  81.936  44.992  0.00  0.00    +0.122 C 
BRANCH  38  39
ATOM     39  CG  ASN A   7      49.818  81.093  45.664  0.00  0.00    +0.263 C 
ATOM     40  OD1 ASN A   7      49.320  80.099  45.112  0.00  0.00    -0.272 OA
ATOM     41  ND2 ASN A   7      49.400  81.391  47.002  0.00  0.00    -0.088 NA
ENDBRANCH  38  39
ENDBRANCH  34  38
ENDBRANCH  33  34
ENDBRANCH  30  31
BRANCH  30  42
ATOM     42  CB  ILE A   6      47.861  81.628  39.867  0.00  0.00    +0.029 C 
ATOM     43  CG2 ILE A   6      49.143  82.307  39.398  0.00  0.00    +0.002 C 
BRANCH  42  44
ATOM     44  CG1 ILE A   6      46.669  81.900  39.063  0.00  0.00    +0.002 C 
ATOM     45  CD1 ILE A   6      45.908  83.148  39.223  0.00  0.00    +0.000 C 
ENDBRANCH  42  44
ENDBRANCH  30  42
ENDBRANCH  29  30
ENDBRANCH  26  27
BRANCH  26  46
ATOM     46  CB  LEU A   5      45.390  77.802  41.013  0.00  0.00    +0.031 C 
BRANCH  46  47
ATOM     47  CG  LEU A   5      45.724  77.250  42.352  0.00  0.00    +0.002 C 
ATOM     48  CD1 LEU A   5      44.584  77.020  43.279  0.00  0.00    +0.000 C 
ATOM     49  CD2 LEU A   5      46.453  75.928  42.150  0.00  0.00    +0.000 C 
ENDBRANCH  46  47
ENDBRANCH  26  46
ENDBRANCH   3  26
TORSDOF 22
