REMARK  Name = Glatiramer_Acetate
REMARK  13 active torsions:
REMARK  status: ('A' for Active; 'I' for Inactive)
REMARK    1  A    between atoms: CA_2  and  C_3
REMARK    2  A    between atoms: CG_16  and  CB_17
REMARK    3  A    between atoms: CB_17  and  CA_18
REMARK    4  A    between atoms: CA_18  and  C_19
REMARK    5  A    between atoms: CG_24  and  CD_25
REMARK    6  A    between atoms: CG_24  and  CB_28
REMARK    7  A    between atoms: CD_25  and  CE_26
REMARK    8  A    between atoms: CB_28  and  CA_29
REMARK    9  A    between atoms: CA_29  and  C_30
REMARK   10  A    between atoms: CB_34  and  CG_35
REMARK   11  A    between atoms: CB_34  and  CA_39
REMARK   12  A    between atoms: CG_35  and  CD_36
REMARK   13  A    between atoms: CA_39  and  C_40
REMARK                            x       y       z     vdW  Elec       q    Type
REMARK                         _______ _______ _______ _____ _____    ______ ____
ROOT
ATOM      1  CB  ALA A   1      46.769  80.313  40.223  0.00  0.00    +0.033 C 
ATOM      2  CA  ALA A   1      46.918  81.671  40.871  0.00  0.00    +0.194 C 
ATOM      3  N   ALA A   1      46.620  81.567  42.276  0.00  0.00    -0.121 NA
ENDROOT
BRANCH   2   4
ATOM      4  C   ALA A   1      48.313  82.121  40.624  0.00  0.00    +0.382 C 
ATOM      5  O   ALA A   1      48.549  82.594  39.473  0.00  0.00    -0.244 OA
ATOM      6  OXT ALA A   1      49.325  82.052  41.548  0.00  0.00    -0.244 OA
ENDBRANCH   2   4
TORSDOF 1
REMARK  Name = Glatiramer_Acetate
REMARK  13 active torsions:
REMARK  status: ('A' for Active; 'I' for Inactive)
REMARK    1  A    between atoms: CA_2  and  C_3
REMARK    2  A    between atoms: CG_16  and  CB_17
REMARK    3  A    between atoms: CB_17  and  CA_18
REMARK    4  A    between atoms: CA_18  and  C_19
REMARK    5  A    between atoms: CG_24  and  CD_25
REMARK    6  A    between atoms: CG_24  and  CB_28
REMARK    7  A    between atoms: CD_25  and  CE_26
REMARK    8  A    between atoms: CB_28  and  CA_29
REMARK    9  A    between atoms: CA_29  and  C_30
REMARK   10  A    between atoms: CB_34  and  CG_35
REMARK   11  A    between atoms: CB_34  and  CA_39
REMARK   12  A    between atoms: CG_35  and  CD_36
REMARK   13  A    between atoms: CA_39  and  C_40
REMARK                            x       y       z     vdW  Elec       q    Type
REMARK                         _______ _______ _______ _____ _____    ______ ____
ROOT
ATOM      1  C   UNL     1      46.722  80.865  40.402  0.00  0.00    +0.126 C 
ATOM      2  C   UNL     1      47.612  81.630  41.306  0.00  0.00    +0.365 C 
ATOM      3  O   UNL     1      47.511  81.647  42.551  0.00  0.00    -0.246 OA
ATOM      4  O   UNL     1      48.627  82.378  40.711  0.00  0.00    -0.246 OA
ENDROOT
TORSDOF 0
REMARK  Name = Glatiramer_Acetate
REMARK  13 active torsions:
REMARK  status: ('A' for Active; 'I' for Inactive)
REMARK    1  A    between atoms: CA_2  and  C_3
REMARK    2  A    between atoms: CG_16  and  CB_17
REMARK    3  A    between atoms: CB_17  and  CA_18
REMARK    4  A    between atoms: CA_18  and  C_19
REMARK    5  A    between atoms: CG_24  and  CD_25
REMARK    6  A    between atoms: CG_24  and  CB_28
REMARK    7  A    between atoms: CD_25  and  CE_26
REMARK    8  A    between atoms: CB_28  and  CA_29
REMARK    9  A    between atoms: CA_29  and  C_30
REMARK   10  A    between atoms: CB_34  and  CG_35
REMARK   11  A    between atoms: CB_34  and  CA_39
REMARK   12  A    between atoms: CG_35  and  CD_36
REMARK   13  A    between atoms: CA_39  and  C_40
REMARK                            x       y       z     vdW  Elec       q    Type
REMARK                         _______ _______ _______ _____ _____    ______ ____
ROOT
ATOM      1  CD2 TYR A   1      49.063  81.854  40.540  0.00  0.00    -0.001 A 
ATOM      2  CE2 TYR A   1      49.867  82.015  41.636  0.00  0.00    +0.042 A 
ATOM      3  CZ  TYR A   1      49.336  82.223  42.887  0.00  0.00    +0.196 A 
ATOM      4  CE1 TYR A   1      47.964  82.275  43.061  0.00  0.00    +0.042 A 
ATOM      5  CD1 TYR A   1      47.152  82.114  41.961  0.00  0.00    -0.001 A 
ATOM      6  CG  TYR A   1      47.675  81.905  40.711  0.00  0.00    -0.020 A 
ATOM      7  OH  TYR A   1      50.157  82.388  44.009  0.00  0.00    -0.287 OA
ENDROOT
BRANCH   6   8
ATOM      8  CB  TYR A   1      46.836  81.738  39.503  0.00  0.00    +0.057 C 
BRANCH   8   9
ATOM      9  CA  TYR A   1      46.552  80.284  39.238  0.00  0.00    +0.199 C 
ATOM     10  N   TYR A   1      45.679  80.152  38.064  0.00  0.00    -0.120 NA
BRANCH   9  11
ATOM     11  C   TYR A   1      45.842  79.640  40.359  0.00  0.00    +0.382 C 
ATOM     12  O   TYR A   1      46.319  79.593  41.545  0.00  0.00    -0.244 OA
ATOM     13  OXT TYR A   1      44.590  79.025  40.235  0.00  0.00    -0.244 OA
ENDBRANCH   9  11
ENDBRANCH   8   9
ENDBRANCH   6   8
TORSDOF 3
REMARK  Name = Glatiramer_Acetate
REMARK  13 active torsions:
REMARK  status: ('A' for Active; 'I' for Inactive)
REMARK    1  A    between atoms: CA_2  and  C_3
REMARK    2  A    between atoms: CG_16  and  CB_17
REMARK    3  A    between atoms: CB_17  and  CA_18
REMARK    4  A    between atoms: CA_18  and  C_19
REMARK    5  A    between atoms: CG_24  and  CD_25
REMARK    6  A    between atoms: CG_24  and  CB_28
REMARK    7  A    between atoms: CD_25  and  CE_26
REMARK    8  A    between atoms: CB_28  and  CA_29
REMARK    9  A    between atoms: CA_29  and  C_30
REMARK   10  A    between atoms: CB_34  and  CG_35
REMARK   11  A    between atoms: CB_34  and  CA_39
REMARK   12  A    between atoms: CG_35  and  CD_36
REMARK   13  A    between atoms: CA_39  and  C_40
REMARK                            x       y       z     vdW  Elec       q    Type
REMARK                         _______ _______ _______ _____ _____    ______ ____
ROOT
ATOM      1  CB  LYS A   1      46.526  81.684  40.722  0.00  0.00    +0.031 C 
ENDROOT
BRANCH   1   2
ATOM      2  CA  LYS A   1      45.914  80.832  39.659  0.00  0.00    +0.194 C 
ATOM      3  N   LYS A   1      44.498  81.153  39.553  0.00  0.00    -0.121 NA
BRANCH   2   4
ATOM      4  C   LYS A   1      46.045  79.388  39.940  0.00  0.00    +0.382 C 
ATOM      5  O   LYS A   1      45.094  78.595  39.924  0.00  0.00    -0.244 OA
ATOM      6  OXT LYS A   1      47.301  78.859  40.244  0.00  0.00    -0.244 OA
ENDBRANCH   2   4
ENDBRANCH   1   2
BRANCH   1   7
ATOM      7  CG  LYS A   1      48.002  81.460  40.928  0.00  0.00    +0.004 C 
BRANCH   7   8
ATOM      8  CD  LYS A   1      48.407  82.437  42.045  0.00  0.00    +0.021 C 
BRANCH   8   9
ATOM      9  CE  LYS A   1      47.775  83.788  41.786  0.00  0.00    +0.109 C 
ATOM     10  NZ  LYS A   1      48.012  84.616  42.940  0.00  0.00    -0.131 NA
ENDBRANCH   8   9
ENDBRANCH   7   8
ENDBRANCH   1   7
TORSDOF 5
REMARK  Name = Glatiramer_Acetate
REMARK  13 active torsions:
REMARK  status: ('A' for Active; 'I' for Inactive)
REMARK    1  A    between atoms: CA_2  and  C_3
REMARK    2  A    between atoms: CG_16  and  CB_17
REMARK    3  A    between atoms: CB_17  and  CA_18
REMARK    4  A    between atoms: CA_18  and  C_19
REMARK    5  A    between atoms: CG_24  and  CD_25
REMARK    6  A    between atoms: CG_24  and  CB_28
REMARK    7  A    between atoms: CD_25  and  CE_26
REMARK    8  A    between atoms: CB_28  and  CA_29
REMARK    9  A    between atoms: CA_29  and  C_30
REMARK   10  A    between atoms: CB_34  and  CG_35
REMARK   11  A    between atoms: CB_34  and  CA_39
REMARK   12  A    between atoms: CG_35  and  CD_36
REMARK   13  A    between atoms: CA_39  and  C_40
REMARK                            x       y       z     vdW  Elec       q    Type
REMARK                         _______ _______ _______ _____ _____    ______ ____
ROOT
ATOM      1  CB  GLU A   1      48.092  80.762  40.331  0.00  0.00    +0.042 C 
ENDROOT
BRANCH   1   2
ATOM      2  CA  GLU A   1      46.760  81.299  40.839  0.00  0.00    +0.195 C 
ATOM      3  N   GLU A   1      46.222  82.271  39.889  0.00  0.00    -0.121 NA
BRANCH   2   4
ATOM      4  C   GLU A   1      45.810  80.163  40.968  0.00  0.00    +0.382 C 
ATOM      5  O   GLU A   1      45.285  79.627  39.976  0.00  0.00    -0.244 OA
ATOM      6  OXT GLU A   1      45.500  79.689  42.223  0.00  0.00    -0.244 OA
ENDBRANCH   2   4
ENDBRANCH   1   2
BRANCH   1   7
ATOM      7  CG  GLU A   1      49.042  81.931  40.206  0.00  0.00    +0.116 C 
BRANCH   7   8
ATOM      8  CD  GLU A   1      49.176  82.528  41.551  0.00  0.00    +0.365 C 
ATOM      9  OE1 GLU A   1      48.412  83.433  41.907  0.00  0.00    -0.246 OA
ATOM     10  OE2 GLU A   1      50.157  82.068  42.399  0.00  0.00    -0.246 OA
ENDBRANCH   7   8
ENDBRANCH   1   7
TORSDOF 4
