REMARK  Name = Glaziovine
REMARK  1 active torsions:
REMARK  status: ('A' for Active; 'I' for Inactive)
REMARK    1  A    between atoms: C_7  and  O_21
REMARK                            x       y       z     vdW  Elec       q    Type
REMARK                         _______ _______ _______ _____ _____    ______ ____
ROOT
ATOM      1  C   UNL     1      46.155  82.668  37.724  0.00  0.00    +0.090 C 
ATOM      2  N   UNL     1      45.643  81.834  38.812  0.00  0.00    -0.269 NA
ATOM      3  C   UNL     1      45.047  80.670  38.183  0.00  0.00    +0.077 C 
ATOM      4  C   UNL     1      44.601  79.573  39.060  0.00  0.00    +0.043 C 
ATOM      5  C   UNL     1      45.413  79.486  40.288  0.00  0.00    -0.021 A 
ATOM      6  C   UNL     1      45.210  78.532  41.297  0.00  0.00    +0.036 A 
ATOM      7  C   UNL     1      45.986  78.510  42.445  0.00  0.00    +0.177 A 
ATOM      8  C   UNL     1      46.993  79.464  42.596  0.00  0.00    +0.226 A 
ATOM      9  C   UNL     1      47.227  80.417  41.632  0.00  0.00    +0.024 A 
ATOM     10  C   UNL     1      46.416  80.363  40.534  0.00  0.00    -0.012 A 
ATOM     11  C   UNL     1      46.808  81.442  39.590  0.00  0.00    +0.081 C 
ATOM     12  C   UNL     1      47.365  82.455  40.513  0.00  0.00    +0.033 C 
ATOM     13  C   UNL     1      48.180  81.563  41.506  0.00  0.00    +0.060 C 
ATOM     14  C   UNL     1      48.273  82.344  42.727  0.00  0.00    -0.015 C 
ATOM     15  C   UNL     1      49.419  82.675  43.260  0.00  0.00    +0.038 C 
ATOM     16  C   UNL     1      50.693  82.285  42.669  0.00  0.00    +0.195 C 
ATOM     17  O   UNL     1      51.789  82.609  43.190  0.00  0.00    -0.287 OA
ATOM     18  C   UNL     1      50.598  81.503  41.445  0.00  0.00    +0.038 C 
ATOM     19  C   UNL     1      49.447  81.178  40.921  0.00  0.00    -0.015 C 
ATOM     20  O   UNL     1      47.751  79.419  43.749  0.00  0.00    -0.284 OA
ENDROOT
BRANCH   7  21
ATOM     21  O   UNL     1      45.748  77.550  43.411  0.00  0.00    -0.468 OA
ATOM     22  C   UNL     1      44.720  76.614  43.362  0.00  0.00    +0.253 C 
ENDBRANCH   7  21
TORSDOF 1
