REMARK  Name = Glibenclamide
REMARK  8 active torsions:
REMARK  status: ('A' for Active; 'I' for Inactive)
REMARK    1  A    between atoms: O_2  and  C_3
REMARK    2  A    between atoms: C_4  and  C_10
REMARK    3  A    between atoms: N_12  and  C_13
REMARK    4  A    between atoms: C_13  and  C_14
REMARK    5  A    between atoms: C_14  and  C_15
REMARK    6  A    between atoms: C_18  and  S_21
REMARK    7  A    between atoms: S_21  and  N_24
REMARK    8  A    between atoms: N_27  and  C_28
REMARK                            x       y       z     vdW  Elec       q    Type
REMARK                         _______ _______ _______ _____ _____    ______ ____
ROOT
ATOM      1  C   UNL     1      48.146  81.276  42.259  0.00  0.00    -0.020 A 
ATOM      2  C   UNL     1      48.192  82.614  42.595  0.00  0.00    -0.003 A 
ATOM      3  C   UNL     1      49.386  83.293  42.718  0.00  0.00    +0.020 A 
ATOM      4  C   UNL     1      50.585  82.648  42.505  0.00  0.00    +0.127 A 
ATOM      5  C   UNL     1      50.569  81.329  42.172  0.00  0.00    +0.020 A 
ATOM      6  C   UNL     1      49.372  80.659  42.052  0.00  0.00    -0.003 A 
ENDROOT
BRANCH   4   7
ATOM      7  S   UNL     1      52.063  83.577  42.679  0.00  0.00    +0.097 S 
ATOM      8  O   UNL     1      51.665  84.999  43.034  0.00  0.00    -0.148 OA
ATOM      9  O   UNL     1      52.846  83.612  41.416  0.00  0.00    -0.148 OA
BRANCH   7  10
ATOM     10  N   UNL     1      52.959  82.874  43.964  0.00  0.00    -0.040 NA
ATOM     11  C   UNL     1      52.718  83.330  45.284  0.00  0.00    +0.360 C 
ATOM     12  O   UNL     1      51.649  83.957  45.585  0.00  0.00    -0.247 OA
ATOM     13  N   UNL     1      53.644  83.119  46.345  0.00  0.00    -0.188 NA
BRANCH  13  14
ATOM     14  C   UNL     1      53.226  83.023  47.749  0.00  0.00    +0.097 C 
ATOM     15  C   UNL     1      54.224  82.192  48.450  0.00  0.00    +0.022 C 
ATOM     16  C   UNL     1      55.072  82.837  49.477  0.00  0.00    +0.002 C 
ATOM     17  C   UNL     1      55.253  84.308  49.119  0.00  0.00    +0.000 C 
ATOM     18  C   UNL     1      53.880  84.926  49.291  0.00  0.00    +0.002 C 
ATOM     19  C   UNL     1      52.977  84.393  48.244  0.00  0.00    +0.022 C 
ENDBRANCH  13  14
ENDBRANCH   7  10
ENDBRANCH   4   7
BRANCH   1  20
ATOM     20  C   UNL     1      46.862  80.538  42.126  0.00  0.00    +0.050 C 
BRANCH  20  21
ATOM     21  C   UNL     1      46.371  80.606  40.722  0.00  0.00    +0.120 C 
BRANCH  21  24
ATOM     22  C   UNL     1      44.478  79.726  39.377  0.00  0.00    +0.268 C 
ATOM     23  O   UNL     1      44.845  80.549  38.470  0.00  0.00    -0.268 OA
ATOM     24  N   UNL     1      45.103  79.884  40.625  0.00  0.00    -0.201 NA
BRANCH  22  26
ATOM     25  C   UNL     1      43.358  77.537  39.687  0.00  0.00    +0.143 A 
ATOM     26  C   UNL     1      43.482  78.735  39.048  0.00  0.00    +0.090 A 
ATOM     27  C   UNL     1      42.581  79.008  38.011  0.00  0.00    +0.019 A 
ATOM     28  C   UNL     1      41.603  78.123  37.633  0.00  0.00    +0.058 A 
ATOM     29  C   UNL     1      41.480  76.916  38.278  0.00  0.00    +0.015 A 
ATOM     30  C   UNL     1      42.357  76.638  39.295  0.00  0.00    +0.038 A 
ATOM     31 CL   UNL     1      40.477  78.459  36.340  0.00  0.00    -0.082 Cl
BRANCH  25  33
ATOM     32  C   UNL     1      44.105  75.942  41.399  0.00  0.00    +0.252 C 
ATOM     33  O   UNL     1      44.179  77.157  40.715  0.00  0.00    -0.471 OA
ENDBRANCH  25  33
ENDBRANCH  22  26
ENDBRANCH  21  24
ENDBRANCH  20  21
ENDBRANCH   1  20
TORSDOF 8
