REMARK  Name = Gliclazide
REMARK  3 active torsions:
REMARK  status: ('A' for Active; 'I' for Inactive)
REMARK    1  A    between atoms: C_5  and  S_8
REMARK    2  A    between atoms: S_8  and  N_11
REMARK    3  A    between atoms: N_14  and  N_15
REMARK                            x       y       z     vdW  Elec       q    Type
REMARK                         _______ _______ _______ _____ _____    ______ ____
ROOT
ATOM      1  N   UNL     1      45.693  80.566  38.622  0.00  0.00    -0.039 NA
ATOM      2  C   UNL     1      46.035  81.439  39.688  0.00  0.00    +0.376 C 
ATOM      3  O   UNL     1      45.096  81.812  40.442  0.00  0.00    -0.246 OA
ATOM      4  N   UNL     1      47.355  81.892  39.930  0.00  0.00    -0.108 NA
ENDROOT
BRANCH   4   5
ATOM      5  N   UNL     1      47.563  83.274  40.121  0.00  0.00    -0.183 NA
ATOM      6  C   UNL     1      48.982  83.562  40.212  0.00  0.00    +0.094 C 
ATOM      7  C   UNL     1      49.414  82.747  41.402  0.00  0.00    +0.019 C 
ATOM      8  C   UNL     1      50.588  83.371  42.127  0.00  0.00    +0.001 C 
ATOM      9  C   UNL     1      50.152  83.336  43.594  0.00  0.00    +0.000 C 
ATOM     10  C   UNL     1      48.693  83.716  43.466  0.00  0.00    +0.001 C 
ATOM     11  C   UNL     1      48.224  82.868  42.328  0.00  0.00    +0.019 C 
ATOM     12  C   UNL     1      47.139  83.560  41.499  0.00  0.00    +0.094 C 
ENDBRANCH   4   5
BRANCH   1  13
ATOM     13  S   UNL     1      44.219  79.671  38.616  0.00  0.00    +0.097 S 
ATOM     14  O   UNL     1      44.029  78.965  37.280  0.00  0.00    -0.148 OA
ATOM     15  O   UNL     1      43.050  80.636  38.726  0.00  0.00    -0.148 OA
BRANCH  13  20
ATOM     16  C   UNL     1      43.967  75.692  43.205  0.00  0.00    +0.031 C 
ATOM     17  C   UNL     1      44.039  76.664  42.068  0.00  0.00    -0.022 A 
ATOM     18  C   UNL     1      44.873  76.461  40.990  0.00  0.00    -0.003 A 
ATOM     19  C   UNL     1      44.931  77.365  39.946  0.00  0.00    +0.020 A 
ATOM     20  C   UNL     1      44.163  78.512  39.926  0.00  0.00    +0.127 A 
ATOM     21  C   UNL     1      43.326  78.709  41.014  0.00  0.00    +0.020 A 
ATOM     22  C   UNL     1      43.267  77.806  42.057  0.00  0.00    -0.003 A 
ENDBRANCH  13  20
ENDBRANCH   1  13
TORSDOF 3
