REMARK  Name = Glimepiride
REMARK  7 active torsions:
REMARK  status: ('A' for Active; 'I' for Inactive)
REMARK    1  A    between atoms: C_2  and  C_3
REMARK    2  A    between atoms: N_11  and  C_12
REMARK    3  A    between atoms: C_12  and  C_13
REMARK    4  A    between atoms: C_13  and  C_14
REMARK    5  A    between atoms: C_17  and  S_20
REMARK    6  A    between atoms: S_20  and  N_23
REMARK    7  A    between atoms: N_26  and  C_27
REMARK                            x       y       z     vdW  Elec       q    Type
REMARK                         _______ _______ _______ _____ _____    ______ ____
ROOT
ATOM      1  C   UNL     1      42.778  77.910  38.221  0.00  0.00    -0.020 A 
ATOM      2  C   UNL     1      41.712  78.002  37.350  0.00  0.00    -0.003 A 
ATOM      3  C   UNL     1      40.637  77.138  37.442  0.00  0.00    +0.020 A 
ATOM      4  C   UNL     1      40.604  76.156  38.410  0.00  0.00    +0.127 A 
ATOM      5  C   UNL     1      41.661  76.048  39.290  0.00  0.00    +0.020 A 
ATOM      6  C   UNL     1      42.727  76.918  39.186  0.00  0.00    -0.003 A 
ENDROOT
BRANCH   4   7
ATOM      7  S   UNL     1      39.274  75.031  38.580  0.00  0.00    +0.097 S 
ATOM      8  O   UNL     1      38.005  75.788  38.224  0.00  0.00    -0.148 OA
ATOM      9  O   UNL     1      39.172  74.498  39.980  0.00  0.00    -0.148 OA
BRANCH   7  10
ATOM     10  N   UNL     1      39.429  73.731  37.466  0.00  0.00    -0.040 NA
ATOM     11  C   UNL     1      39.100  73.863  36.099  0.00  0.00    +0.360 C 
ATOM     12  O   UNL     1      38.681  75.005  35.730  0.00  0.00    -0.247 OA
ATOM     13  N   UNL     1      39.221  72.796  35.163  0.00  0.00    -0.188 NA
BRANCH  13  14
ATOM     14  C   UNL     1      38.311  72.664  34.041  0.00  0.00    +0.097 C 
ATOM     15  C   UNL     1      38.183  71.225  33.614  0.00  0.00    +0.022 C 
ATOM     16  C   UNL     1      38.573  71.106  32.158  0.00  0.00    +0.002 C 
ATOM     17  C   UNL     1      39.991  71.622  32.036  0.00  0.00    +0.000 C 
ATOM     18  C   UNL     1      39.924  73.124  32.175  0.00  0.00    +0.002 C 
ATOM     19  C   UNL     1      38.686  73.579  32.902  0.00  0.00    +0.022 C 
ATOM     20  C   UNL     1      40.603  71.175  30.750  0.00  0.00    +0.000 C 
ENDBRANCH  13  14
ENDBRANCH   7  10
ENDBRANCH   4   7
BRANCH   1  21
ATOM     21  C   UNL     1      43.947  78.826  38.146  0.00  0.00    +0.050 C 
BRANCH  21  22
ATOM     22  C   UNL     1      43.600  80.067  38.947  0.00  0.00    +0.121 C 
BRANCH  22  31
ATOM     23  C   UNL     1      48.398  82.285  41.452  0.00  0.00    +0.026 C 
ATOM     24  C   UNL     1      48.755  83.027  40.421  0.00  0.00    -0.023 C 
ATOM     25  C   UNL     1      47.808  82.877  39.305  0.00  0.00    +0.125 C 
ATOM     26  N   UNL     1      46.820  81.947  39.780  0.00  0.00    -0.206 N 
ATOM     27  C   UNL     1      47.178  81.581  41.099  0.00  0.00    +0.252 C 
ATOM     28  O   UNL     1      46.523  80.768  41.829  0.00  0.00    -0.270 OA
ATOM     29  C   UNL     1      45.669  81.474  39.043  0.00  0.00    +0.329 C 
ATOM     30  O   UNL     1      45.427  81.894  37.900  0.00  0.00    -0.250 OA
ATOM     31  N   UNL     1      44.814  80.524  39.630  0.00  0.00    -0.188 NA
ATOM     32  C   UNL     1      49.992  83.895  40.456  0.00  0.00    +0.028 C 
BRANCH  23  34
ATOM     33  C   UNL     1      48.669  83.261  43.719  0.00  0.00    +0.005 C 
ATOM     34  C   UNL     1      49.109  82.175  42.761  0.00  0.00    +0.030 C 
ENDBRANCH  23  34
ENDBRANCH  22  31
ENDBRANCH  21  22
ENDBRANCH   1  21
TORSDOF 7
