REMARK  Name = Glipizide
REMARK  7 active torsions:
REMARK  status: ('A' for Active; 'I' for Inactive)
REMARK    1  A    between atoms: C_5  and  C_8
REMARK    2  A    between atoms: N_10  and  C_11
REMARK    3  A    between atoms: C_11  and  C_12
REMARK    4  A    between atoms: C_12  and  C_13
REMARK    5  A    between atoms: C_16  and  S_19
REMARK    6  A    between atoms: S_19  and  N_22
REMARK    7  A    between atoms: N_25  and  C_26
REMARK                            x       y       z     vdW  Elec       q    Type
REMARK                         _______ _______ _______ _____ _____    ______ ____
ROOT
ATOM      1  C   UNL     1      42.849  77.877  38.514  0.00  0.00    -0.020 A 
ATOM      2  C   UNL     1      42.515  76.820  39.333  0.00  0.00    -0.003 A 
ATOM      3  C   UNL     1      41.263  76.221  39.195  0.00  0.00    +0.020 A 
ATOM      4  C   UNL     1      40.352  76.665  38.255  0.00  0.00    +0.127 A 
ATOM      5  C   UNL     1      40.686  77.709  37.450  0.00  0.00    +0.020 A 
ATOM      6  C   UNL     1      41.923  78.302  37.585  0.00  0.00    -0.003 A 
ENDROOT
BRANCH   4   7
ATOM      7  S   UNL     1      38.812  75.830  38.180  0.00  0.00    +0.097 S 
ATOM      8  O   UNL     1      37.712  76.625  38.795  0.00  0.00    -0.148 OA
ATOM      9  O   UNL     1      38.935  74.482  38.874  0.00  0.00    -0.148 OA
BRANCH   7  10
ATOM     10  N   UNL     1      38.500  75.490  36.514  0.00  0.00    -0.040 NA
ATOM     11  C   UNL     1      39.265  74.558  35.768  0.00  0.00    +0.360 C 
ATOM     12  O   UNL     1      40.401  74.262  36.214  0.00  0.00    -0.247 OA
ATOM     13  N   UNL     1      38.759  73.987  34.567  0.00  0.00    -0.188 NA
BRANCH  13  14
ATOM     14  C   UNL     1      39.626  73.918  33.396  0.00  0.00    +0.097 C 
ATOM     15  C   UNL     1      38.769  73.608  32.185  0.00  0.00    +0.022 C 
ATOM     16  C   UNL     1      37.976  72.342  32.389  0.00  0.00    +0.002 C 
ATOM     17  C   UNL     1      38.920  71.182  32.610  0.00  0.00    +0.000 C 
ATOM     18  C   UNL     1      39.880  71.485  33.719  0.00  0.00    +0.002 C 
ATOM     19  C   UNL     1      40.624  72.773  33.520  0.00  0.00    +0.022 C 
ENDBRANCH  13  14
ENDBRANCH   7  10
ENDBRANCH   4   7
BRANCH   1  20
ATOM     20  C   UNL     1      44.194  78.534  38.650  0.00  0.00    +0.050 C 
BRANCH  20  21
ATOM     21  C   UNL     1      43.961  79.956  39.048  0.00  0.00    +0.120 C 
BRANCH  21  24
ATOM     22  C   UNL     1      45.833  81.544  39.319  0.00  0.00    +0.284 C 
ATOM     23  O   UNL     1      45.513  82.096  38.247  0.00  0.00    -0.267 OA
ATOM     24  N   UNL     1      45.076  80.457  39.795  0.00  0.00    -0.200 NA
BRANCH  22  29
ATOM     25  C   UNL     1      50.351  83.412  42.282  0.00  0.00    +0.054 C 
ATOM     26  C   UNL     1      49.172  82.913  41.519  0.00  0.00    +0.079 A 
ATOM     27  C   UNL     1      48.509  81.755  41.863  0.00  0.00    +0.114 A 
ATOM     28  N   UNL     1      47.440  81.344  41.135  0.00  0.00    -0.236 NA
ATOM     29  C   UNL     1      47.002  82.031  40.082  0.00  0.00    +0.155 A 
ATOM     30  C   UNL     1      47.650  83.191  39.722  0.00  0.00    +0.122 A 
ATOM     31  N   UNL     1      48.720  83.597  40.456  0.00  0.00    -0.245 NA
ENDBRANCH  22  29
ENDBRANCH  21  24
ENDBRANCH  20  21
ENDBRANCH   1  20
TORSDOF 7
