REMARK  Name = Gliquidone
REMARK  7 active torsions:
REMARK  status: ('A' for Active; 'I' for Inactive)
REMARK    1  A    between atoms: C_6  and  O_9
REMARK    2  A    between atoms: N_13  and  C_16
REMARK    3  A    between atoms: C_16  and  C_17
REMARK    4  A    between atoms: C_17  and  C_18
REMARK    5  A    between atoms: C_21  and  S_24
REMARK    6  A    between atoms: S_24  and  N_27
REMARK    7  A    between atoms: N_30  and  C_31
REMARK                            x       y       z     vdW  Elec       q    Type
REMARK                         _______ _______ _______ _____ _____    ______ ____
ROOT
ATOM      1  C   UNL     1      48.038  82.387  41.516  0.00  0.00    -0.020 A 
ATOM      2  C   UNL     1      48.994  81.421  41.745  0.00  0.00    -0.003 A 
ATOM      3  C   UNL     1      50.264  81.790  42.130  0.00  0.00    +0.020 A 
ATOM      4  C   UNL     1      50.646  83.097  42.303  0.00  0.00    +0.127 A 
ATOM      5  C   UNL     1      49.699  84.067  42.076  0.00  0.00    +0.020 A 
ATOM      6  C   UNL     1      48.411  83.706  41.687  0.00  0.00    -0.003 A 
ENDROOT
BRANCH   4   7
ATOM      7  S   UNL     1      52.259  83.470  42.789  0.00  0.00    +0.097 S 
ATOM      8  O   UNL     1      52.904  84.458  41.833  0.00  0.00    -0.148 OA
ATOM      9  O   UNL     1      53.142  82.243  42.769  0.00  0.00    -0.148 OA
BRANCH   7  10
ATOM     10  N   UNL     1      52.304  84.186  44.370  0.00  0.00    -0.040 NA
ATOM     11  C   UNL     1      51.630  83.608  45.472  0.00  0.00    +0.360 C 
ATOM     12  O   UNL     1      50.958  82.553  45.240  0.00  0.00    -0.247 OA
ATOM     13  N   UNL     1      51.675  84.143  46.783  0.00  0.00    -0.188 NA
BRANCH  13  14
ATOM     14  C   UNL     1      51.052  83.437  47.855  0.00  0.00    +0.097 C 
ATOM     15  C   UNL     1      51.129  84.165  49.179  0.00  0.00    +0.022 C 
ATOM     16  C   UNL     1      51.091  83.119  50.273  0.00  0.00    +0.002 C 
ATOM     17  C   UNL     1      50.259  81.909  49.869  0.00  0.00    +0.000 C 
ATOM     18  C   UNL     1      50.907  81.164  48.720  0.00  0.00    +0.002 C 
ATOM     19  C   UNL     1      51.850  82.139  48.045  0.00  0.00    +0.022 C 
ENDBRANCH  13  14
ENDBRANCH   7  10
ENDBRANCH   4   7
BRANCH   1  20
ATOM     20  C   UNL     1      46.644  82.023  41.097  0.00  0.00    +0.048 C 
BRANCH  20  21
ATOM     21  C   UNL     1      46.703  81.199  39.821  0.00  0.00    +0.106 C 
BRANCH  21  32
ATOM     22  C   UNL     1      45.381  76.679  40.555  0.00  0.00    +0.014 C 
ATOM     23  C   UNL     1      44.685  78.025  40.765  0.00  0.00    +0.088 C 
ATOM     24  C   UNL     1      43.582  78.198  39.816  0.00  0.00    -0.010 A 
ATOM     25  C   UNL     1      43.517  79.251  38.950  0.00  0.00    +0.053 A 
ATOM     26  C   UNL     1      42.433  79.355  38.064  0.00  0.00    +0.041 A 
ATOM     27  C   UNL     1      41.423  78.424  38.037  0.00  0.00    +0.139 A 
ATOM     28  C   UNL     1      41.491  77.365  38.910  0.00  0.00    +0.037 A 
ATOM     29  C   UNL     1      42.541  77.253  39.777  0.00  0.00    -0.001 A 
ATOM     30  C   UNL     1      44.555  80.298  38.913  0.00  0.00    +0.255 C 
ATOM     31  O   UNL     1      44.446  81.245  38.096  0.00  0.00    -0.270 OA
ATOM     32  N   UNL     1      45.645  80.195  39.809  0.00  0.00    -0.226 N 
ATOM     33  C   UNL     1      45.682  79.091  40.695  0.00  0.00    +0.234 C 
ATOM     34  O   UNL     1      46.677  79.022  41.505  0.00  0.00    -0.274 OA
ATOM     35  C   UNL     1      44.157  78.017  42.202  0.00  0.00    +0.014 C 
BRANCH  27  36
ATOM     36  O   UNL     1      40.380  78.575  37.145  0.00  0.00    -0.471 OA
ATOM     37  C   UNL     1      40.356  79.588  36.159  0.00  0.00    +0.252 C 
ENDBRANCH  27  36
ENDBRANCH  21  32
ENDBRANCH  20  21
ENDBRANCH   1  20
TORSDOF 7
