REMARK  Name = Glisolamide
REMARK  7 active torsions:
REMARK  status: ('A' for Active; 'I' for Inactive)
REMARK    1  A    between atoms: C_4  and  C_7
REMARK    2  A    between atoms: N_9  and  C_10
REMARK    3  A    between atoms: C_10  and  C_11
REMARK    4  A    between atoms: C_11  and  C_12
REMARK    5  A    between atoms: C_15  and  S_18
REMARK    6  A    between atoms: S_18  and  N_21
REMARK    7  A    between atoms: N_24  and  C_25
REMARK                            x       y       z     vdW  Elec       q    Type
REMARK                         _______ _______ _______ _____ _____    ______ ____
ROOT
ATOM      1  C   UNL     1      43.172  79.209  39.098  0.00  0.00    -0.020 A 
ATOM      2  C   UNL     1      42.268  79.365  38.061  0.00  0.00    -0.003 A 
ATOM      3  C   UNL     1      41.285  78.448  37.774  0.00  0.00    +0.020 A 
ATOM      4  C   UNL     1      41.167  77.310  38.538  0.00  0.00    +0.127 A 
ATOM      5  C   UNL     1      42.050  77.128  39.575  0.00  0.00    +0.020 A 
ATOM      6  C   UNL     1      43.033  78.055  39.853  0.00  0.00    -0.003 A 
ENDROOT
BRANCH   4   7
ATOM      7  S   UNL     1      39.914  76.165  38.154  0.00  0.00    +0.097 S 
ATOM      8  O   UNL     1      38.585  76.813  38.420  0.00  0.00    -0.148 OA
ATOM      9  O   UNL     1      40.012  74.968  39.070  0.00  0.00    -0.148 OA
BRANCH   7  10
ATOM     10  N   UNL     1      40.071  75.709  36.510  0.00  0.00    -0.040 NA
ATOM     11  C   UNL     1      39.825  74.370  36.113  0.00  0.00    +0.360 C 
ATOM     12  O   UNL     1      39.871  73.399  36.935  0.00  0.00    -0.247 OA
ATOM     13  N   UNL     1      39.509  74.018  34.764  0.00  0.00    -0.188 NA
BRANCH  13  14
ATOM     14  C   UNL     1      39.797  72.704  34.216  0.00  0.00    +0.097 C 
ATOM     15  C   UNL     1      39.887  72.843  32.715  0.00  0.00    +0.022 C 
ATOM     16  C   UNL     1      38.752  72.199  31.996  0.00  0.00    +0.002 C 
ATOM     17  C   UNL     1      37.407  72.441  32.638  0.00  0.00    +0.000 C 
ATOM     18  C   UNL     1      37.402  72.250  34.117  0.00  0.00    +0.002 C 
ATOM     19  C   UNL     1      38.713  71.739  34.625  0.00  0.00    +0.022 C 
ENDBRANCH  13  14
ENDBRANCH   7  10
ENDBRANCH   4   7
BRANCH   1  20
ATOM     20  C   UNL     1      44.223  80.220  39.380  0.00  0.00    +0.050 C 
BRANCH  20  21
ATOM     21  C   UNL     1      45.549  79.510  39.433  0.00  0.00    +0.120 C 
BRANCH  21  24
ATOM     22  C   UNL     1      46.493  81.789  39.789  0.00  0.00    +0.286 C 
ATOM     23  O   UNL     1      45.655  82.542  39.222  0.00  0.00    -0.267 OA
ATOM     24  N   UNL     1      46.660  80.432  39.393  0.00  0.00    -0.200 NA
BRANCH  22  28
ATOM     25  C   UNL     1      48.876  84.722  43.133  0.00  0.00    +0.075 C 
ATOM     26  C   UNL     1      48.380  83.571  42.365  0.00  0.00    +0.155 A 
ATOM     27  C   UNL     1      47.516  83.612  41.299  0.00  0.00    +0.063 A 
ATOM     28  C   UNL     1      47.310  82.307  40.871  0.00  0.00    +0.177 A 
ATOM     29  N   UNL     1      48.058  81.562  41.698  0.00  0.00    -0.073 NA
ATOM     30  O   UNL     1      48.676  82.316  42.564  0.00  0.00    -0.358 OA
ENDBRANCH  22  28
ENDBRANCH  21  24
ENDBRANCH  20  21
ENDBRANCH   1  20
TORSDOF 7
