REMARK  Name = Glisoxepide
REMARK  7 active torsions:
REMARK  status: ('A' for Active; 'I' for Inactive)
REMARK    1  A    between atoms: C_4  and  C_7
REMARK    2  A    between atoms: N_9  and  C_10
REMARK    3  A    between atoms: C_10  and  C_11
REMARK    4  A    between atoms: C_11  and  C_12
REMARK    5  A    between atoms: C_15  and  S_18
REMARK    6  A    between atoms: S_18  and  N_21
REMARK    7  A    between atoms: N_24  and  N_25
REMARK                            x       y       z     vdW  Elec       q    Type
REMARK                         _______ _______ _______ _____ _____    ______ ____
ROOT
ATOM      1  C   UNL     1      43.042  78.579  39.150  0.00  0.00    -0.020 A 
ATOM      2  C   UNL     1      42.082  78.758  38.168  0.00  0.00    -0.003 A 
ATOM      3  C   UNL     1      41.100  77.815  37.948  0.00  0.00    +0.020 A 
ATOM      4  C   UNL     1      41.033  76.655  38.696  0.00  0.00    +0.127 A 
ATOM      5  C   UNL     1      41.996  76.485  39.674  0.00  0.00    +0.020 A 
ATOM      6  C   UNL     1      42.986  77.425  39.904  0.00  0.00    -0.003 A 
ENDROOT
BRANCH   4   7
ATOM      7  S   UNL     1      39.783  75.462  38.411  0.00  0.00    +0.097 S 
ATOM      8  O   UNL     1      38.521  76.213  38.060  0.00  0.00    -0.148 OA
ATOM      9  O   UNL     1      39.510  74.647  39.638  0.00  0.00    -0.148 OA
BRANCH   7  10
ATOM     10  N   UNL     1      40.160  74.451  37.063  0.00  0.00    -0.039 NA
ATOM     11  C   UNL     1      39.539  74.637  35.781  0.00  0.00    +0.376 C 
ATOM     12  O   UNL     1      39.218  75.794  35.397  0.00  0.00    -0.246 OA
ATOM     13  N   UNL     1      39.268  73.549  34.911  0.00  0.00    -0.108 NA
BRANCH  13  14
ATOM     14  N   UNL     1      38.189  73.619  34.036  0.00  0.00    -0.183 NA
ATOM     15  C   UNL     1      37.441  72.414  33.934  0.00  0.00    +0.094 C 
ATOM     16  C   UNL     1      36.871  72.144  32.572  0.00  0.00    +0.019 C 
ATOM     17  C   UNL     1      37.898  71.963  31.512  0.00  0.00    +0.002 C 
ATOM     18  C   UNL     1      39.308  72.118  31.969  0.00  0.00    +0.002 C 
ATOM     19  C   UNL     1      39.618  73.605  32.034  0.00  0.00    +0.019 C 
ATOM     20  C   UNL     1      38.490  74.259  32.794  0.00  0.00    +0.094 C 
ENDBRANCH  13  14
ENDBRANCH   7  10
ENDBRANCH   4   7
BRANCH   1  21
ATOM     21  C   UNL     1      44.100  79.608  39.378  0.00  0.00    +0.050 C 
BRANCH  21  22
ATOM     22  C   UNL     1      45.118  79.441  38.290  0.00  0.00    +0.120 C 
BRANCH  22  25
ATOM     23  C   UNL     1      46.163  81.588  39.057  0.00  0.00    +0.286 C 
ATOM     24  O   UNL     1      45.304  82.391  38.608  0.00  0.00    -0.267 OA
ATOM     25  N   UNL     1      46.278  80.294  38.461  0.00  0.00    -0.200 NA
BRANCH  23  29
ATOM     26  C   UNL     1      49.293  84.010  42.195  0.00  0.00    +0.075 C 
ATOM     27  C   UNL     1      48.430  82.990  41.560  0.00  0.00    +0.155 A 
ATOM     28  C   UNL     1      47.711  83.115  40.393  0.00  0.00    +0.063 A 
ATOM     29  C   UNL     1      47.045  81.930  40.163  0.00  0.00    +0.177 A 
ATOM     30  N   UNL     1      47.391  81.144  41.198  0.00  0.00    -0.073 NA
ATOM     31  O   UNL     1      48.198  81.782  41.999  0.00  0.00    -0.358 OA
ENDBRANCH  23  29
ENDBRANCH  22  25
ENDBRANCH  21  22
ENDBRANCH   1  21
TORSDOF 7
