REMARK  Name = Glutathione
REMARK  9 active torsions:
REMARK  status: ('A' for Active; 'I' for Inactive)
REMARK    1  A    between atoms: C_1  and  C_2
REMARK    2  A    between atoms: C_1  and  C_16
REMARK    3  A    between atoms: C_2  and  C_3
REMARK    4  A    between atoms: N_5  and  C_6
REMARK    5  A    between atoms: C_6  and  C_7
REMARK    6  A    between atoms: C_6  and  C_9
REMARK    7  A    between atoms: N_11  and  CA_12
REMARK    8  A    between atoms: CA_12  and  C_13
REMARK    9  A    between atoms: C_16  and  C_17
REMARK                            x       y       z     vdW  Elec       q    Type
REMARK                         _______ _______ _______ _____ _____    ______ ____
ROOT
ATOM      1  C   UNK A   1      46.776  80.254  41.584  0.00  0.00    +0.242 C 
ATOM      2  O   UNK A   1      45.880  80.620  42.391  0.00  0.00    -0.273 OA
ATOM      3  N   UNK A   1      46.411  80.016  40.254  0.00  0.00    -0.197 NA
ENDROOT
BRANCH   1   4
ATOM      4  C   UNK A   1      48.149  80.109  42.120  0.00  0.00    +0.089 C 
BRANCH   4   5
ATOM      5  C   UNK A   1      49.003  81.310  41.878  0.00  0.00    +0.040 C 
BRANCH   5   6
ATOM      6  C   UNK A   1      50.399  80.978  42.418  0.00  0.00    +0.195 C 
ATOM      7  N   UNK A   1      50.310  80.652  43.830  0.00  0.00    -0.121 NA
BRANCH   6   8
ATOM      8  C   UNK A   1      51.346  82.088  42.188  0.00  0.00    +0.382 C 
ATOM      9  O   UNK A   1      51.420  82.613  41.061  0.00  0.00    -0.244 OA
ATOM     10  O   UNK A   1      52.133  82.520  43.234  0.00  0.00    -0.244 OA
ENDBRANCH   6   8
ENDBRANCH   5   6
ENDBRANCH   4   5
ENDBRANCH   1   4
BRANCH   3  11
ATOM     11  C   UNK A   1      45.097  80.117  39.711  0.00  0.00    +0.184 C 
BRANCH  11  12
ATOM     12  C   UNK A   1      44.418  78.776  39.633  0.00  0.00    +0.263 C 
ATOM     13  O   UNK A   1      44.961  77.731  40.085  0.00  0.00    -0.271 OA
ATOM     14  N   GLY A   2      43.142  78.650  39.047  0.00  0.00    -0.192 NA
BRANCH  14  15
ATOM     15  CA  GLY A   2      42.557  77.330  38.845  0.00  0.00    +0.228 C 
BRANCH  15  16
ATOM     16  C   GLY A   2      41.273  77.405  38.121  0.00  0.00    +0.387 C 
ATOM     17  O   GLY A   2      40.865  78.548  37.791  0.00  0.00    -0.244 OA
ATOM     18  OXT GLY A   2      40.505  76.295  37.793  0.00  0.00    -0.244 OA
ENDBRANCH  15  16
ENDBRANCH  14  15
ENDBRANCH  11  12
BRANCH  11  19
ATOM     19  C   UNK A   1      45.054  80.752  38.345  0.00  0.00    +0.100 C 
ATOM     20  S   UNK A   1      45.836  82.402  38.395  0.00  0.00    -0.080 S 
ENDBRANCH  11  19
ENDBRANCH   3  11
TORSDOF 9
