REMARK  Name = Glycerol_phenylbutyrate
REMARK  20 active torsions:
REMARK  status: ('A' for Active; 'I' for Inactive)
REMARK    1  A    between atoms: C_4  and  C_7
REMARK    2  A    between atoms: C_7  and  C_8
REMARK    3  A    between atoms: C_8  and  C_9
REMARK    4  A    between atoms: C_9  and  C_10
REMARK    5  A    between atoms: C_10  and  O_12
REMARK    6  A    between atoms: O_12  and  C_13
REMARK    7  A    between atoms: C_13  and  C_14
REMARK    8  A    between atoms: C_14  and  C_15
REMARK    9  A    between atoms: C_14  and  O_28
REMARK   10  A    between atoms: C_15  and  O_16
REMARK   11  A    between atoms: O_16  and  C_17
REMARK   12  A    between atoms: C_17  and  C_19
REMARK   13  A    between atoms: C_19  and  C_20
REMARK   14  A    between atoms: C_20  and  C_21
REMARK   15  A    between atoms: C_21  and  C_22
REMARK   16  A    between atoms: O_28  and  C_29
REMARK   17  A    between atoms: C_29  and  C_31
REMARK   18  A    between atoms: C_31  and  C_32
REMARK   19  A    between atoms: C_32  and  C_33
REMARK   20  A    between atoms: C_33  and  C_34
REMARK                            x       y       z     vdW  Elec       q    Type
REMARK                         _______ _______ _______ _____ _____    ______ ____
ROOT
ATOM      1  C   UNL     1      44.175  78.531  40.480  0.00  0.00    +0.256 C 
ENDROOT
BRANCH   1   2
ATOM      2  C   UNL     1      43.387  77.635  39.548  0.00  0.00    +0.256 C 
BRANCH   2   3
ATOM      3  O   UNL     1      42.212  78.255  39.084  0.00  0.00    -0.444 OA
BRANCH   3   4
ATOM      4  C   UNL     1      41.502  77.607  38.083  0.00  0.00    +0.317 C 
ATOM      5  O   UNL     1      41.499  77.999  36.888  0.00  0.00    -0.250 OA
BRANCH   4   6
ATOM      6  C   UNL     1      40.685  76.383  38.381  0.00  0.00    +0.110 C 
BRANCH   6   7
ATOM      7  C   UNL     1      40.106  75.901  37.081  0.00  0.00    +0.016 C 
BRANCH   7   8
ATOM      8  C   UNL     1      39.353  74.598  37.239  0.00  0.00    +0.027 C 
BRANCH   8  12
ATOM      9  C   UNL     1      37.616  73.151  33.648  0.00  0.00    -0.000 A 
ATOM     10  C   UNL     1      37.173  74.368  34.149  0.00  0.00    -0.000 A 
ATOM     11  C   UNL     1      37.749  74.822  35.317  0.00  0.00    -0.004 A 
ATOM     12  C   UNL     1      38.729  74.130  35.994  0.00  0.00    -0.022 A 
ATOM     13  C   UNL     1      39.146  72.924  35.468  0.00  0.00    -0.004 A 
ATOM     14  C   UNL     1      38.590  72.447  34.305  0.00  0.00    -0.000 A 
ENDBRANCH   8  12
ENDBRANCH   7   8
ENDBRANCH   6   7
ENDBRANCH   4   6
ENDBRANCH   3   4
ENDBRANCH   2   3
ENDBRANCH   1   2
BRANCH   1  15
ATOM     15  C   UNL     1      44.618  79.792  39.842  0.00  0.00    +0.256 C 
BRANCH  15  16
ATOM     16  O   UNL     1      45.042  80.714  40.805  0.00  0.00    -0.444 OA
BRANCH  16  17
ATOM     17  C   UNL     1      46.296  81.285  40.850  0.00  0.00    +0.317 C 
ATOM     18  O   UNL     1      46.753  81.792  39.796  0.00  0.00    -0.250 OA
BRANCH  17  19
ATOM     19  C   UNL     1      47.112  81.319  42.092  0.00  0.00    +0.110 C 
BRANCH  19  20
ATOM     20  C   UNL     1      48.309  82.212  41.968  0.00  0.00    +0.016 C 
BRANCH  20  21
ATOM     21  C   UNL     1      49.094  82.408  43.224  0.00  0.00    +0.027 C 
BRANCH  21  22
ATOM     22  C   UNL     1      50.258  83.299  42.998  0.00  0.00    -0.022 A 
ATOM     23  C   UNL     1      51.301  82.889  42.206  0.00  0.00    -0.004 A 
ATOM     24  C   UNL     1      52.408  83.692  41.971  0.00  0.00    -0.000 A 
ATOM     25  C   UNL     1      52.468  84.944  42.548  0.00  0.00    -0.000 A 
ATOM     26  C   UNL     1      51.432  85.374  43.345  0.00  0.00    -0.000 A 
ATOM     27  C   UNL     1      50.330  84.549  43.568  0.00  0.00    -0.004 A 
ENDBRANCH  21  22
ENDBRANCH  20  21
ENDBRANCH  19  20
ENDBRANCH  17  19
ENDBRANCH  16  17
ENDBRANCH  15  16
ENDBRANCH   1  15
BRANCH   1  28
ATOM     28  O   UNL     1      45.223  77.757  41.016  0.00  0.00    -0.444 OA
BRANCH  28  29
ATOM     29  C   UNL     1      45.068  76.634  41.779  0.00  0.00    +0.317 C 
ATOM     30  O   UNL     1      44.674  76.766  42.961  0.00  0.00    -0.250 OA
BRANCH  29  31
ATOM     31  C   UNL     1      45.337  75.249  41.296  0.00  0.00    +0.110 C 
BRANCH  31  32
ATOM     32  C   UNL     1      46.538  74.752  42.082  0.00  0.00    +0.016 C 
BRANCH  32  33
ATOM     33  C   UNL     1      46.922  73.347  41.684  0.00  0.00    +0.027 C 
BRANCH  33  34
ATOM     34  C   UNL     1      48.082  72.951  42.519  0.00  0.00    -0.022 A 
ATOM     35  C   UNL     1      48.382  71.603  42.611  0.00  0.00    -0.004 A 
ATOM     36  C   UNL     1      49.453  71.244  43.382  0.00  0.00    -0.000 A 
ATOM     37  C   UNL     1      50.202  72.190  44.041  0.00  0.00    -0.000 A 
ATOM     38  C   UNL     1      49.899  73.526  43.946  0.00  0.00    -0.000 A 
ATOM     39  C   UNL     1      48.816  73.894  43.166  0.00  0.00    -0.004 A 
ENDBRANCH  33  34
ENDBRANCH  32  33
ENDBRANCH  31  32
ENDBRANCH  29  31
ENDBRANCH  28  29
ENDBRANCH   1  28
TORSDOF 20
