REMARK  Name = Glycodiazine
REMARK  6 active torsions:
REMARK  status: ('A' for Active; 'I' for Inactive)
REMARK    1  A    between atoms: O_2  and  C_3
REMARK    2  A    between atoms: C_3  and  C_4
REMARK    3  A    between atoms: C_4  and  O_5
REMARK    4  A    between atoms: O_5  and  C_6
REMARK    5  A    between atoms: N_12  and  S_13
REMARK    6  A    between atoms: S_13  and  C_16
REMARK                            x       y       z     vdW  Elec       q    Type
REMARK                         _______ _______ _______ _____ _____    ______ ____
ROOT
ATOM      1  C   UNL     1      44.007  79.863  39.166  0.00  0.00    +0.177 A 
ATOM      2  C   UNL     1      44.440  80.853  38.330  0.00  0.00    +0.140 A 
ATOM      3  N   UNL     1      45.530  81.575  38.650  0.00  0.00    -0.206 NA
ATOM      4  C   UNL     1      46.236  81.375  39.770  0.00  0.00    +0.259 A 
ATOM      5  N   UNL     1      45.817  80.406  40.595  0.00  0.00    -0.206 NA
ATOM      6  C   UNL     1      44.739  79.651  40.334  0.00  0.00    +0.140 A 
ATOM      7  N   UNL     1      47.373  82.137  40.090  0.00  0.00    -0.058 NA
ENDROOT
BRANCH   7   8
ATOM      8  S   UNL     1      48.256  81.810  41.519  0.00  0.00    +0.096 S 
ATOM      9  O   UNL     1      47.295  81.106  42.468  0.00  0.00    -0.148 OA
ATOM     10  O   UNL     1      49.370  80.841  41.162  0.00  0.00    -0.148 OA
BRANCH   8  11
ATOM     11  C   UNL     1      48.903  83.206  42.296  0.00  0.00    +0.127 A 
ATOM     12  C   UNL     1      50.237  83.509  42.194  0.00  0.00    +0.020 A 
ATOM     13  C   UNL     1      50.777  84.618  42.813  0.00  0.00    +0.001 A 
ATOM     14  C   UNL     1      49.947  85.440  43.553  0.00  0.00    +0.000 A 
ATOM     15  C   UNL     1      48.602  85.164  43.676  0.00  0.00    +0.001 A 
ATOM     16  C   UNL     1      48.094  84.030  43.033  0.00  0.00    +0.020 A 
ENDBRANCH   8  11
ENDBRANCH   7   8
BRANCH   1  17
ATOM     17  O   UNL     1      42.930  79.055  38.985  0.00  0.00    -0.470 OA
BRANCH  17  18
ATOM     18  C   UNL     1      42.044  78.900  37.949  0.00  0.00    +0.237 C 
BRANCH  18  19
ATOM     19  C   UNL     1      41.005  77.840  38.077  0.00  0.00    +0.189 C 
BRANCH  19  21
ATOM     20  C   UNL     1      40.150  76.015  36.956  0.00  0.00    +0.174 C 
ATOM     21  O   UNL     1      41.076  77.055  36.914  0.00  0.00    -0.347 OA
ENDBRANCH  19  21
ENDBRANCH  18  19
ENDBRANCH  17  18
ENDBRANCH   1  17
TORSDOF 6
