REMARK  Name = GMDP
REMARK  15 active torsions:
REMARK  status: ('A' for Active; 'I' for Inactive)
REMARK    1  A    between atoms: CA_2  and  C_3
REMARK    2  A    between atoms: CA_2  and  N_15
REMARK    3  A    between atoms: N_5  and  CA_6
REMARK    4  A    between atoms: CA_6  and  CB_7
REMARK    5  A    between atoms: CA_6  and  C_12
REMARK    6  A    between atoms: CB_7  and  CG_8
REMARK    7  A    between atoms: CG_8  and  CD_9
REMARK    8  A    between atoms: C_16  and  C_18
REMARK    9  A    between atoms: C_18  and  O_20
REMARK   10  A    between atoms: O_20  and  C_21
REMARK   11  A    between atoms: C_22  and  N_42
REMARK   12  A    between atoms: C_25  and  C_39
REMARK   13  A    between atoms: C_26  and  O_27
REMARK   14  A    between atoms: O_27  and  C_28
REMARK   15  A    between atoms: C_32  and  C_34
REMARK                            x       y       z     vdW  Elec       q    Type
REMARK                         _______ _______ _______ _____ _____    ______ ____
ROOT
ATOM      1  C   UNK A   0      43.590  76.901  39.951  0.00  0.00    +0.170 C 
ATOM      2  C   UNK A   0      44.414  75.913  40.671  0.00  0.00    +0.184 C 
ATOM      3  C   UNK A   0      43.794  75.227  41.864  0.00  0.00    +0.292 C 
ATOM      4  O   UNK A   0      42.431  75.099  41.822  0.00  0.00    -0.324 OA
ATOM      5  C   UNK A   0      41.900  76.383  41.581  0.00  0.00    +0.180 C 
ATOM      6  C   UNK A   0      42.076  76.600  40.108  0.00  0.00    +0.176 C 
ATOM      7  O   UNK A   0      44.141  75.742  43.090  0.00  0.00    -0.188 OA
ENDROOT
BRANCH   2   8
ATOM      8  N   UNK A   0      45.779  76.240  40.895  0.00  0.00    -0.199 NA
ATOM      9  C   UNK A   0      46.550  76.888  39.902  0.00  0.00    +0.242 C 
ATOM     10  O   UNK A   0      46.443  76.520  38.713  0.00  0.00    -0.273 OA
ATOM     11  C   UNK A   0      47.492  77.995  40.208  0.00  0.00    +0.096 C 
ENDBRANCH   2   8
BRANCH   5  12
ATOM     12  C   UNK A   0      40.494  76.436  42.078  0.00  0.00    +0.214 C 
ATOM     13  O   UNK A   0      40.081  75.220  42.572  0.00  0.00    -0.218 OA
ENDBRANCH   5  12
BRANCH   1  14
ATOM     14  O   UNK A   0      43.715  78.225  40.254  0.00  0.00    -0.345 OA
BRANCH  14  15
ATOM     15  C   UNK A   0      44.663  78.870  39.515  0.00  0.00    +0.193 C 
ATOM     16  C   UNK A   0      44.022  79.160  38.145  0.00  0.00    +0.042 C 
BRANCH  15  18
ATOM     17  N   GLN A   1      46.510  80.487  40.055  0.00  0.00    -0.196 NA
ATOM     18  C   UNK A   0      45.100  80.183  40.039  0.00  0.00    +0.269 C 
ATOM     19  O   UNK A   0      44.349  81.079  40.481  0.00  0.00    -0.271 OA
BRANCH  17  21
ATOM     20  CB  GLN A   1      46.523  82.808  39.507  0.00  0.00    +0.033 C 
ATOM     21  CA  GLN A   1      46.974  81.766  40.548  0.00  0.00    +0.173 C 
BRANCH  21  22
ATOM     22  C   GLN A   1      48.439  81.825  40.579  0.00  0.00    +0.262 C 
ATOM     23  O   GLN A   1      49.115  81.005  39.885  0.00  0.00    -0.271 OA
ATOM     24  N   GLN A   1      49.151  82.773  41.362  0.00  0.00    -0.194 NA
BRANCH  24  25
ATOM     25  CA  GLN A   1      50.047  82.433  42.443  0.00  0.00    +0.198 C 
BRANCH  25  26
ATOM     26  C   GLN A   1      50.695  83.606  43.052  0.00  0.00    +0.384 C 
ATOM     27  O   GLN A   1      49.998  84.514  43.547  0.00  0.00    -0.244 OA
ATOM     28  OXT GLN A   1      52.072  83.725  43.087  0.00  0.00    -0.244 OA
ENDBRANCH  25  26
BRANCH  25  29
ATOM     29  CB  GLN A   1      49.264  81.617  43.456  0.00  0.00    +0.043 C 
BRANCH  29  30
ATOM     30  CG  GLN A   1      50.172  81.090  44.549  0.00  0.00    +0.091 C 
BRANCH  30  31
ATOM     31  CD  GLN A   1      50.882  79.869  44.088  0.00  0.00    +0.261 C 
ATOM     32  OE1 GLN A   1      50.402  79.086  43.218  0.00  0.00    -0.272 OA
ATOM     33  NE2 GLN A   1      52.148  79.526  44.611  0.00  0.00    -0.088 NA
ENDBRANCH  30  31
ENDBRANCH  29  30
ENDBRANCH  25  29
ENDBRANCH  24  25
ENDBRANCH  21  22
ENDBRANCH  17  21
ENDBRANCH  15  18
ENDBRANCH  14  15
ENDBRANCH   1  14
BRANCH   6  34
ATOM     34  O   UNK A   0      41.886  75.422  39.439  0.00  0.00    -0.327 OA
BRANCH  34  35
ATOM     35  C   UNK A   0      40.576  75.018  39.323  0.00  0.00    +0.256 C 
ATOM     36  C   UNK A   0      40.212  74.241  38.115  0.00  0.00    +0.181 C 
ATOM     37  C   UNK A   0      38.872  74.811  37.614  0.00  0.00    +0.207 C 
ATOM     38  C   UNK A   0      39.169  76.233  37.179  0.00  0.00    +0.213 C 
ATOM     39  C   UNK A   0      39.675  76.954  38.415  0.00  0.00    +0.183 C 
ATOM     40  O   UNK A   0      39.810  76.168  39.519  0.00  0.00    -0.326 OA
ATOM     41  O   UNK A   0      40.102  76.220  36.150  0.00  0.00    -0.218 OA
ATOM     42  O   UNK A   0      37.953  74.893  38.659  0.00  0.00    -0.219 OA
ATOM     43  N   UNK A   0      39.919  72.838  38.412  0.00  0.00    -0.125 NA
BRANCH  39  44
ATOM     44  C   UNK A   0      40.901  77.715  38.014  0.00  0.00    +0.214 C 
ATOM     45  O   UNK A   0      40.647  79.107  38.016  0.00  0.00    -0.218 OA
ENDBRANCH  39  44
ENDBRANCH  34  35
ENDBRANCH   6  34
TORSDOF 15
