REMARK  Name = Gonadorelin
REMARK  31 active torsions:
REMARK  status: ('A' for Active; 'I' for Inactive)
REMARK    1  A    between atoms: C_2  and  C_4
REMARK    2  A    between atoms: C_4  and  C_5
REMARK    3  A    between atoms: C_5  and  C_6
REMARK    4  A    between atoms: C_5  and  N_31
REMARK    5  A    between atoms: N_8  and  C_9
REMARK    6  A    between atoms: C_9  and  C_10
REMARK    7  A    between atoms: C_9  and  C_17
REMARK    8  A    between atoms: C_10  and  C_11
REMARK    9  A    between atoms: C_11  and  C_12
REMARK   10  A    between atoms: C_12  and  N_13
REMARK   11  A    between atoms: C_23  and  C_24
REMARK   12  A    between atoms: N_26  and  C_27
REMARK   13  A    between atoms: C_27  and  C_28
REMARK   14  A    between atoms: C_32  and  C_34
REMARK   15  A    between atoms: C_34  and  N_35
REMARK   16  A    between atoms: C_36  and  C_38
REMARK   17  A    between atoms: C_38  and  C_39
REMARK   18  A    between atoms: C_38  and  N_47
REMARK   19  A    between atoms: C_39  and  C_40
REMARK   20  A    between atoms: C_48  and  CA_50
REMARK   21  A    between atoms: CA_50  and  C_51
REMARK   22  A    between atoms: CA_50  and  N_53
REMARK   23  A    between atoms: C_54  and  CA_56
REMARK   24  A    between atoms: CA_56  and  CB_57
REMARK   25  A    between atoms: CA_56  and  N_67
REMARK   26  A    between atoms: CB_57  and  CG_58
REMARK   27  A    between atoms: C_68  and  CA_70
REMARK   28  A    between atoms: CA_70  and  CB_71
REMARK   29  A    between atoms: CA_70  and  N_77
REMARK   30  A    between atoms: CB_71  and  CG_72
REMARK   31  A    between atoms: C_78  and  CA_80
REMARK                            x       y       z     vdW  Elec       q    Type
REMARK                         _______ _______ _______ _____ _____    ______ ____
ROOT
ATOM      1  C   UNL     1      49.197  79.614  42.340  0.00  0.00    +0.177 C 
ENDROOT
BRANCH   1   2
ATOM      2  N   UNL     1      48.193  79.349  41.317  0.00  0.00    -0.196 NA
ATOM      3  C   UNL     1      46.838  79.294  41.696  0.00  0.00    +0.264 C 
ATOM      4  O   UNL     1      46.215  80.371  41.885  0.00  0.00    -0.271 OA
BRANCH   3   5
ATOM      5  CA  UNL     1      46.109  77.979  41.902  0.00  0.00    +0.205 C 
BRANCH   5   6
ATOM      6  N   UNL     1      45.323  77.777  40.662  0.00  0.00    -0.194 NA
ATOM      7  C   UNL     1      44.225  78.643  40.473  0.00  0.00    +0.262 C 
ATOM      8  O   UNL     1      43.739  79.199  41.527  0.00  0.00    -0.271 OA
BRANCH   7   9
ATOM      9  CA  UNL     1      43.582  78.976  39.151  0.00  0.00    +0.177 C 
BRANCH   9  10
ATOM     10  N   UNL     1      42.338  78.326  38.950  0.00  0.00    -0.196 NA
ATOM     11  C   UNL     1      41.587  78.492  37.736  0.00  0.00    +0.262 C 
ATOM     12  O   UNL     1      42.116  79.171  36.825  0.00  0.00    -0.271 OA
BRANCH  11  13
ATOM     13  CA  UNL     1      40.277  77.920  37.522  0.00  0.00    +0.179 C 
BRANCH  13  14
ATOM     14  N   UNL     1      40.007  77.437  36.175  0.00  0.00    -0.196 NA
ATOM     15  C   UNL     1      40.253  76.100  35.775  0.00  0.00    +0.262 C 
ATOM     16  O   UNL     1      40.614  75.231  36.638  0.00  0.00    -0.271 OA
BRANCH  15  17
ATOM     17  CA  UNL     1      40.072  75.765  34.345  0.00  0.00    +0.173 C 
ATOM     18  C   UNL     1      41.267  74.916  33.895  0.00  0.00    +0.041 C 
ATOM     19  C   UNL     1      40.844  73.575  34.488  0.00  0.00    +0.089 C 
ATOM     20  C   UNL     1      39.393  73.565  34.078  0.00  0.00    +0.242 C 
ATOM     21  O   UNL     1      38.659  72.604  33.796  0.00  0.00    -0.273 OA
ATOM     22  N   UNL     1      38.949  74.934  34.064  0.00  0.00    -0.198 NA
ENDBRANCH  15  17
ENDBRANCH  13  14
BRANCH  13  23
ATOM     23  CB  UNL     1      39.123  78.843  37.934  0.00  0.00    +0.079 C 
BRANCH  23  24
ATOM     24  CG  UNL     1      37.832  78.141  37.965  0.00  0.00    +0.082 A 
ATOM     25  CD2 UNL     1      37.553  76.806  37.795  0.00  0.00    +0.115 A 
ATOM     26  NE2 UNL     1      36.212  76.598  37.918  0.00  0.00    -0.221 NA
ATOM     27  CE1 UNL     1      35.661  77.796  38.163  0.00  0.00    +0.199 A 
ATOM     28  ND1 UNL     1      36.627  78.716  38.191  0.00  0.00    -0.227 NA
ENDBRANCH  23  24
ENDBRANCH  13  23
ENDBRANCH  11  13
ENDBRANCH   9  10
BRANCH   9  29
ATOM     29  CB  UNL     1      43.674  80.453  38.992  0.00  0.00    +0.059 C 
BRANCH  29  30
ATOM     30  CG  UNL     1      44.967  81.089  39.282  0.00  0.00    +0.001 A 
ATOM     31  CD1 UNL     1      45.204  82.480  39.132  0.00  0.00    +0.095 A 
ATOM     32  NE1 UNL     1      46.464  82.750  39.479  0.00  0.00    -0.244 NA
ATOM     33  CE2 UNL     1      47.109  81.639  39.857  0.00  0.00    +0.081 A 
ATOM     34  CZ2 UNL     1      48.395  81.383  40.279  0.00  0.00    +0.019 A 
ATOM     35  CH2 UNL     1      48.820  80.115  40.592  0.00  0.00    +0.002 A 
ATOM     36  CZ3 UNL     1      47.887  79.092  40.466  0.00  0.00    +0.000 A 
ATOM     37  CE3 UNL     1      46.609  79.351  40.050  0.00  0.00    +0.001 A 
ATOM     38  CD2 UNL     1      46.168  80.614  39.731  0.00  0.00    +0.015 A 
ENDBRANCH  29  30
ENDBRANCH   9  29
ENDBRANCH   7   9
ENDBRANCH   5   6
BRANCH   5  39
ATOM     39  C   UNL     1      47.073  76.871  42.097  0.00  0.00    +0.213 C 
ATOM     40  O   UNL     1      46.963  75.860  41.160  0.00  0.00    -0.218 OA
ENDBRANCH   5  39
ENDBRANCH   3   5
ENDBRANCH   1   2
BRANCH   1  42
ATOM     41  N   UNL     1      49.626  77.096  42.561  0.00  0.00    -0.194 NA
ATOM     42  C   UNL     1      49.890  78.463  42.838  0.00  0.00    +0.262 C 
ATOM     43  O   UNL     1      50.873  78.660  43.644  0.00  0.00    -0.271 OA
BRANCH  41  44
ATOM     44  C   UNL     1      50.472  76.087  43.171  0.00  0.00    +0.201 C 
BRANCH  44  46
ATOM     45  N   UNL     1      50.316  73.900  44.285  0.00  0.00    -0.196 NA
ATOM     46  C   UNL     1      49.649  75.032  43.777  0.00  0.00    +0.264 C 
ATOM     47  O   UNL     1      48.420  75.124  43.832  0.00  0.00    -0.271 OA
BRANCH  45  48
ATOM     48  C   UNL     1      49.632  72.787  44.986  0.00  0.00    +0.173 C 
BRANCH  48  49
ATOM     49  C   UNL     1      50.646  72.055  45.729  0.00  0.00    +0.262 C 
ATOM     50  O   UNL     1      50.828  70.821  45.442  0.00  0.00    -0.271 OA
ATOM     51  N   UNL     1      51.492  72.546  46.767  0.00  0.00    -0.196 NA
BRANCH  51  52
ATOM     52  C   UNL     1      52.502  71.731  47.382  0.00  0.00    +0.171 C 
BRANCH  52  53
ATOM     53  C   UNL     1      53.364  72.378  48.370  0.00  0.00    +0.246 C 
ATOM     54  O   UNL     1      52.800  72.957  49.386  0.00  0.00    -0.273 OA
ATOM     55  N   UNL     1      54.788  72.462  48.370  0.00  0.00    -0.272 N 
ATOM     56  C   UNL     1      55.746  71.859  47.490  0.00  0.00    +0.094 C 
ATOM     57  C   UNL     1      56.952  71.584  48.396  0.00  0.00    +0.024 C 
ATOM     58  C   UNL     1      56.994  72.933  49.128  0.00  0.00    +0.031 C 
ATOM     59  C   UNL     1      55.547  73.257  49.354  0.00  0.00    +0.154 C 
BRANCH  59  60
ATOM     60  C   UNL     1      55.338  74.701  49.204  0.00  0.00    +0.260 C 
ATOM     61  O   UNL     1      55.066  75.270  48.123  0.00  0.00    -0.272 OA
ATOM     62  N   UNL     1      55.455  75.495  50.382  0.00  0.00    -0.194 NA
BRANCH  62  63
ATOM     63  C   UNL     1      55.221  76.904  50.395  0.00  0.00    +0.203 C 
BRANCH  63  64
ATOM     64  C   UNL     1      55.436  77.388  51.799  0.00  0.00    +0.283 C 
ATOM     65  O   UNL     1      55.750  76.547  52.668  0.00  0.00    -0.270 OA
ATOM     66  N   UNL     1      55.297  78.747  52.158  0.00  0.00    -0.086 NA
ENDBRANCH  63  64
ENDBRANCH  62  63
ENDBRANCH  59  60
ENDBRANCH  52  53
BRANCH  52  67
ATOM     67  C   UNL     1      51.843  70.550  48.057  0.00  0.00    +0.033 C 
BRANCH  67  68
ATOM     68  C   UNL     1      52.288  69.212  47.616  0.00  0.00    +0.029 C 
BRANCH  68  69
ATOM     69  C   UNL     1      51.671  68.064  48.347  0.00  0.00    +0.129 C 
BRANCH  69  70
ATOM     70  N   UNL     1      52.098  66.809  47.766  0.00  0.00    -0.234 NA
ATOM     71  C   UNL     1      52.638  65.931  48.532  0.00  0.00    +0.284 C 
ATOM     72  N   UNL     1      53.056  64.715  47.894  0.00  0.00    -0.104 NA
ATOM     73  N   UNL     1      52.846  66.062  49.918  0.00  0.00    -0.104 NA
ENDBRANCH  69  70
ENDBRANCH  68  69
ENDBRANCH  67  68
ENDBRANCH  52  67
ENDBRANCH  51  52
ENDBRANCH  48  49
BRANCH  48  74
ATOM     74  C   UNL     1      48.971  72.021  43.848  0.00  0.00    +0.031 C 
BRANCH  74  76
ATOM     75  C   UNL     1      47.334  71.414  45.583  0.00  0.00    +0.000 C 
ATOM     76  C   UNL     1      47.976  70.998  44.236  0.00  0.00    +0.002 C 
ATOM     77  C   UNL     1      48.558  69.629  44.441  0.00  0.00    +0.000 C 
ENDBRANCH  74  76
ENDBRANCH  48  74
ENDBRANCH  45  48
ENDBRANCH  44  46
ENDBRANCH  41  44
ENDBRANCH   1  42
BRANCH   1  78
ATOM     78  C   UNL     1      48.373  80.177  43.576  0.00  0.00    +0.057 C 
BRANCH  78  79
ATOM     79  C   UNL     1      48.209  81.636  43.477  0.00  0.00    -0.020 A 
ATOM     80  C   UNL     1      46.920  82.180  43.671  0.00  0.00    -0.001 A 
ATOM     81  C   UNL     1      46.725  83.534  43.594  0.00  0.00    +0.042 A 
ATOM     82  C   UNL     1      47.746  84.433  43.331  0.00  0.00    +0.196 A 
ATOM     83  C   UNL     1      49.000  83.903  43.141  0.00  0.00    +0.042 A 
ATOM     84  C   UNL     1      49.212  82.536  43.217  0.00  0.00    -0.001 A 
ATOM     85  O   UNL     1      47.512  85.793  43.261  0.00  0.00    -0.287 OA
ENDBRANCH  78  79
ENDBRANCH   1  78
TORSDOF 31
