REMARK  Name = Gonadoreline-6-d-trp_acetate
REMARK  33 active torsions:
REMARK  status: ('A' for Active; 'I' for Inactive)
REMARK    1  A    between atoms: C_2  and  C_4
REMARK    2  A    between atoms: C_4  and  C_5
REMARK    3  A    between atoms: C_5  and  C_6
REMARK    4  A    between atoms: C_5  and  N_31
REMARK    5  A    between atoms: N_8  and  C_9
REMARK    6  A    between atoms: C_9  and  C_10
REMARK    7  A    between atoms: C_9  and  C_17
REMARK    8  A    between atoms: C_10  and  C_11
REMARK    9  A    between atoms: C_11  and  C_12
REMARK   10  A    between atoms: C_12  and  N_13
REMARK   11  A    between atoms: C_23  and  C_24
REMARK   12  A    between atoms: N_26  and  C_27
REMARK   13  A    between atoms: C_27  and  C_28
REMARK   14  A    between atoms: C_32  and  C_34
REMARK   15  A    between atoms: C_34  and  C_35
REMARK   16  A    between atoms: C_34  and  N_45
REMARK   17  A    between atoms: C_35  and  C_36
REMARK   18  A    between atoms: C_46  and  C_48
REMARK   19  A    between atoms: C_48  and  C_49
REMARK   20  A    between atoms: C_48  and  N_57
REMARK   21  A    between atoms: C_49  and  C_50
REMARK   22  A    between atoms: C_58  and  CA_60
REMARK   23  A    between atoms: CA_60  and  C_61
REMARK   24  A    between atoms: CA_60  and  N_63
REMARK   25  A    between atoms: C_64  and  CA_66
REMARK   26  A    between atoms: CA_66  and  CB_67
REMARK   27  A    between atoms: CA_66  and  N_77
REMARK   28  A    between atoms: CB_67  and  CG_68
REMARK   29  A    between atoms: C_78  and  CA_80
REMARK   30  A    between atoms: CA_80  and  CB_81
REMARK   31  A    between atoms: CA_80  and  N_87
REMARK   32  A    between atoms: CB_81  and  CG_82
REMARK   33  A    between atoms: C_88  and  CA_90
REMARK                            x       y       z     vdW  Elec       q    Type
REMARK                         _______ _______ _______ _____ _____    ______ ____
ROOT
ATOM      1  C   UNL     1      46.951  76.214  43.862  0.00  0.00    +0.177 C 
ENDROOT
BRANCH   1   3
ATOM      2  N   UNL     1      47.316  77.586  41.699  0.00  0.00    -0.196 NA
ATOM      3  C   UNL     1      46.723  76.523  42.438  0.00  0.00    +0.262 C 
ATOM      4  O   UNL     1      45.925  75.791  41.738  0.00  0.00    -0.271 OA
BRANCH   2   5
ATOM      5  C   UNL     1      47.080  77.728  40.285  0.00  0.00    +0.177 C 
BRANCH   5   7
ATOM      6  N   UNL     1      44.731  78.770  40.560  0.00  0.00    -0.196 NA
ATOM      7  C   UNL     1      45.811  78.249  39.841  0.00  0.00    +0.262 C 
ATOM      8  O   UNL     1      45.630  78.236  38.561  0.00  0.00    -0.271 OA
BRANCH   6   9
ATOM      9  C   UNL     1      43.523  79.262  39.843  0.00  0.00    +0.173 C 
BRANCH   9  10
ATOM     10  C   UNL     1      42.596  78.123  39.624  0.00  0.00    +0.262 C 
ATOM     11  O   UNL     1      42.845  77.022  40.202  0.00  0.00    -0.271 OA
ATOM     12  N   UNL     1      41.476  78.207  38.812  0.00  0.00    -0.196 NA
BRANCH  12  13
ATOM     13  C   UNL     1      40.523  77.082  38.559  0.00  0.00    +0.171 C 
BRANCH  13  14
ATOM     14  C   UNL     1      40.234  77.034  37.133  0.00  0.00    +0.246 C 
ATOM     15  O   UNL     1      40.560  78.094  36.466  0.00  0.00    -0.273 OA
ATOM     16  N   UNL     1      39.654  75.972  36.445  0.00  0.00    -0.272 N 
ATOM     17  C   UNL     1      39.308  76.036  34.998  0.00  0.00    +0.094 C 
ATOM     18  C   UNL     1      38.117  75.148  34.852  0.00  0.00    +0.024 C 
ATOM     19  C   UNL     1      37.986  74.371  36.116  0.00  0.00    +0.031 C 
ATOM     20  C   UNL     1      39.294  74.641  36.848  0.00  0.00    +0.154 C 
BRANCH  20  21
ATOM     21  C   UNL     1      40.241  73.602  36.354  0.00  0.00    +0.260 C 
ATOM     22  O   UNL     1      39.888  72.403  36.416  0.00  0.00    -0.272 OA
ATOM     23  N   UNL     1      41.494  73.958  35.835  0.00  0.00    -0.194 NA
BRANCH  23  24
ATOM     24  C   UNL     1      42.444  72.962  35.325  0.00  0.00    +0.203 C 
BRANCH  24  25
ATOM     25  C   UNL     1      42.513  73.068  33.820  0.00  0.00    +0.283 C 
ATOM     26  O   UNL     1      41.732  73.822  33.192  0.00  0.00    -0.270 OA
ATOM     27  N   UNL     1      43.444  72.335  33.048  0.00  0.00    -0.086 NA
ENDBRANCH  24  25
ENDBRANCH  23  24
ENDBRANCH  20  21
ENDBRANCH  13  14
BRANCH  13  28
ATOM     28  C   UNL     1      39.294  77.583  39.306  0.00  0.00    +0.033 C 
BRANCH  28  29
ATOM     29  C   UNL     1      38.088  76.727  39.290  0.00  0.00    +0.029 C 
BRANCH  29  30
ATOM     30  C   UNL     1      37.003  77.446  40.119  0.00  0.00    +0.129 C 
BRANCH  30  31
ATOM     31  N   UNL     1      35.779  76.743  40.193  0.00  0.00    -0.234 NA
ATOM     32  C   UNL     1      34.768  77.157  40.858  0.00  0.00    +0.284 C 
ATOM     33  N   UNL     1      34.731  78.298  41.694  0.00  0.00    -0.104 NA
ATOM     34  N   UNL     1      33.576  76.400  40.765  0.00  0.00    -0.104 NA
ENDBRANCH  30  31
ENDBRANCH  29  30
ENDBRANCH  28  29
ENDBRANCH  13  28
ENDBRANCH  12  13
ENDBRANCH   9  10
BRANCH   9  35
ATOM     35  C   UNL     1      43.041  80.424  40.580  0.00  0.00    +0.031 C 
BRANCH  35  37
ATOM     36  C   UNL     1      43.319  82.679  41.558  0.00  0.00    +0.000 C 
ATOM     37  C   UNL     1      43.951  81.611  40.687  0.00  0.00    +0.002 C 
ATOM     38  C   UNL     1      44.021  82.197  39.257  0.00  0.00    +0.000 C 
ENDBRANCH  35  37
ENDBRANCH   9  35
ENDBRANCH   6   9
ENDBRANCH   5   7
BRANCH   5  39
ATOM     39  C   UNL     1      48.250  78.437  39.678  0.00  0.00    +0.059 C 
BRANCH  39  40
ATOM     40  C   UNL     1      48.339  79.888  39.943  0.00  0.00    +0.001 A 
ATOM     41  C   UNL     1      48.966  80.472  41.054  0.00  0.00    +0.095 A 
ATOM     42  N   UNL     1      48.767  81.790  40.982  0.00  0.00    -0.244 NA
ATOM     43  C   UNL     1      48.053  82.114  39.897  0.00  0.00    +0.081 A 
ATOM     44  C   UNL     1      47.640  83.365  39.426  0.00  0.00    +0.019 A 
ATOM     45  C   UNL     1      46.930  83.435  38.245  0.00  0.00    +0.002 A 
ATOM     46  C   UNL     1      46.664  82.248  37.586  0.00  0.00    +0.000 A 
ATOM     47  C   UNL     1      47.074  81.035  38.061  0.00  0.00    +0.001 A 
ATOM     48  C   UNL     1      47.779  80.939  39.235  0.00  0.00    +0.015 A 
ENDBRANCH  39  40
ENDBRANCH   5  39
ENDBRANCH   2   5
ENDBRANCH   1   3
BRANCH   1  49
ATOM     49  N   UNL     1      48.183  76.828  44.354  0.00  0.00    -0.196 NA
ATOM     50  C   UNL     1      49.392  76.184  44.061  0.00  0.00    +0.264 C 
ATOM     51  O   UNL     1      49.333  75.077  43.337  0.00  0.00    -0.271 OA
BRANCH  50  52
ATOM     52  CA  UNL     1      50.743  76.538  44.431  0.00  0.00    +0.205 C 
BRANCH  52  53
ATOM     53  N   UNL     1      51.067  77.574  45.316  0.00  0.00    -0.194 NA
ATOM     54  C   UNL     1      50.787  78.941  45.273  0.00  0.00    +0.262 C 
ATOM     55  O   UNL     1      50.122  79.398  44.352  0.00  0.00    -0.271 OA
BRANCH  54  56
ATOM     56  CA  UNL     1      51.312  79.856  46.362  0.00  0.00    +0.177 C 
BRANCH  56  57
ATOM     57  N   UNL     1      52.172  79.080  47.191  0.00  0.00    -0.196 NA
ATOM     58  C   UNL     1      52.018  78.848  48.592  0.00  0.00    +0.262 C 
ATOM     59  O   UNL     1      51.075  79.371  49.198  0.00  0.00    -0.271 OA
BRANCH  58  60
ATOM     60  CA  UNL     1      52.992  77.972  49.298  0.00  0.00    +0.179 C 
BRANCH  60  61
ATOM     61  N   UNL     1      53.993  77.474  48.348  0.00  0.00    -0.196 NA
ATOM     62  C   UNL     1      54.018  76.114  47.957  0.00  0.00    +0.262 C 
ATOM     63  O   UNL     1      53.162  75.346  48.462  0.00  0.00    -0.271 OA
BRANCH  62  64
ATOM     64  CA  UNL     1      54.984  75.532  46.988  0.00  0.00    +0.173 C 
ATOM     65  C   UNL     1      56.407  75.634  47.434  0.00  0.00    +0.041 C 
ATOM     66  C   UNL     1      57.093  74.502  46.696  0.00  0.00    +0.089 C 
ATOM     67  C   UNL     1      55.973  73.514  46.482  0.00  0.00    +0.242 C 
ATOM     68  O   UNL     1      56.210  72.345  46.087  0.00  0.00    -0.273 OA
ATOM     69  N   UNL     1      54.745  74.131  46.789  0.00  0.00    -0.198 NA
ENDBRANCH  62  64
ENDBRANCH  60  61
BRANCH  60  70
ATOM     70  CB  UNL     1      53.704  78.652  50.429  0.00  0.00    +0.079 C 
BRANCH  70  71
ATOM     71  CG  UNL     1      54.650  77.672  51.041  0.00  0.00    +0.082 A 
ATOM     72  CD2 UNL     1      55.959  77.473  50.695  0.00  0.00    +0.115 A 
ATOM     73  NE2 UNL     1      56.432  76.509  51.490  0.00  0.00    -0.221 NA
ATOM     74  CE1 UNL     1      55.464  76.115  52.305  0.00  0.00    +0.199 A 
ATOM     75  ND1 UNL     1      54.364  76.826  52.035  0.00  0.00    -0.227 NA
ENDBRANCH  70  71
ENDBRANCH  60  70
ENDBRANCH  58  60
ENDBRANCH  56  57
BRANCH  56  76
ATOM     76  CB  UNL     1      52.037  81.015  45.749  0.00  0.00    +0.059 C 
BRANCH  76  77
ATOM     77  CG  UNL     1      52.583  81.900  46.792  0.00  0.00    +0.001 A 
ATOM     78  CD1 UNL     1      51.929  83.029  47.282  0.00  0.00    +0.095 A 
ATOM     79  NE1 UNL     1      52.688  83.584  48.239  0.00  0.00    -0.244 NA
ATOM     80  CE2 UNL     1      53.836  82.878  48.421  0.00  0.00    +0.081 A 
ATOM     81  CZ2 UNL     1      54.920  83.045  49.253  0.00  0.00    +0.019 A 
ATOM     82  CH2 UNL     1      55.969  82.166  49.201  0.00  0.00    +0.002 A 
ATOM     83  CZ3 UNL     1      55.900  81.107  48.285  0.00  0.00    +0.000 A 
ATOM     84  CE3 UNL     1      54.805  80.957  47.461  0.00  0.00    +0.001 A 
ATOM     85  CD2 UNL     1      53.755  81.840  47.517  0.00  0.00    +0.015 A 
ENDBRANCH  76  77
ENDBRANCH  56  76
ENDBRANCH  54  56
ENDBRANCH  52  53
BRANCH  52  86
ATOM     86  C   UNL     1      51.519  76.666  43.099  0.00  0.00    +0.213 C 
ATOM     87  O   UNL     1      51.415  75.477  42.397  0.00  0.00    -0.218 OA
ENDBRANCH  52  86
ENDBRANCH  50  52
ENDBRANCH   1  49
BRANCH   1  88
ATOM     88  C   UNL     1      45.811  76.256  44.778  0.00  0.00    +0.057 C 
BRANCH  88  89
ATOM     89  C   UNL     1      45.071  77.517  44.942  0.00  0.00    -0.020 A 
ATOM     90  C   UNL     1      43.974  77.794  44.165  0.00  0.00    -0.001 A 
ATOM     91  C   UNL     1      43.268  78.948  44.348  0.00  0.00    +0.042 A 
ATOM     92  C   UNL     1      43.631  79.881  45.315  0.00  0.00    +0.196 A 
ATOM     93  C   UNL     1      44.739  79.570  46.075  0.00  0.00    +0.042 A 
ATOM     94  C   UNL     1      45.461  78.413  45.908  0.00  0.00    -0.001 A 
ATOM     95  O   UNL     1      42.889  81.025  45.456  0.00  0.00    -0.287 OA
ENDBRANCH  88  89
ENDBRANCH   1  88
TORSDOF 33
REMARK  Name = Gonadoreline-6-d-trp_acetate
REMARK  33 active torsions:
REMARK  status: ('A' for Active; 'I' for Inactive)
REMARK    1  A    between atoms: C_2  and  C_4
REMARK    2  A    between atoms: C_4  and  C_5
REMARK    3  A    between atoms: C_5  and  C_6
REMARK    4  A    between atoms: C_5  and  N_31
REMARK    5  A    between atoms: N_8  and  C_9
REMARK    6  A    between atoms: C_9  and  C_10
REMARK    7  A    between atoms: C_9  and  C_17
REMARK    8  A    between atoms: C_10  and  C_11
REMARK    9  A    between atoms: C_11  and  C_12
REMARK   10  A    between atoms: C_12  and  N_13
REMARK   11  A    between atoms: C_23  and  C_24
REMARK   12  A    between atoms: N_26  and  C_27
REMARK   13  A    between atoms: C_27  and  C_28
REMARK   14  A    between atoms: C_32  and  C_34
REMARK   15  A    between atoms: C_34  and  C_35
REMARK   16  A    between atoms: C_34  and  N_45
REMARK   17  A    between atoms: C_35  and  C_36
REMARK   18  A    between atoms: C_46  and  C_48
REMARK   19  A    between atoms: C_48  and  C_49
REMARK   20  A    between atoms: C_48  and  N_57
REMARK   21  A    between atoms: C_49  and  C_50
REMARK   22  A    between atoms: C_58  and  CA_60
REMARK   23  A    between atoms: CA_60  and  C_61
REMARK   24  A    between atoms: CA_60  and  N_63
REMARK   25  A    between atoms: C_64  and  CA_66
REMARK   26  A    between atoms: CA_66  and  CB_67
REMARK   27  A    between atoms: CA_66  and  N_77
REMARK   28  A    between atoms: CB_67  and  CG_68
REMARK   29  A    between atoms: C_78  and  CA_80
REMARK   30  A    between atoms: CA_80  and  CB_81
REMARK   31  A    between atoms: CA_80  and  N_87
REMARK   32  A    between atoms: CB_81  and  CG_82
REMARK   33  A    between atoms: C_88  and  CA_90
REMARK                            x       y       z     vdW  Elec       q    Type
REMARK                         _______ _______ _______ _____ _____    ______ ____
ROOT
ATOM      1  C   UNL     1      47.517  78.120  43.075  0.00  0.00    +0.126 C 
ATOM      2  C   UNL     1      46.351  78.339  42.179  0.00  0.00    +0.365 C 
ATOM      3  O   UNL     1      45.875  79.513  42.085  0.00  0.00    -0.246 OA
ATOM      4  O   UNL     1      45.757  77.325  41.441  0.00  0.00    -0.246 OA
ENDROOT
TORSDOF 0
