REMARK  Name = Grepafloxacin
REMARK  3 active torsions:
REMARK  status: ('A' for Active; 'I' for Inactive)
REMARK    1  A    between atoms: N_4  and  C_8
REMARK    2  A    between atoms: N_14  and  C_22
REMARK    3  A    between atoms: C_16  and  C_19
REMARK                            x       y       z     vdW  Elec       q    Type
REMARK                         _______ _______ _______ _____ _____    ______ ____
ROOT
ATOM      1  C   UNL     1      48.224  81.581  41.429  0.00  0.00    +0.077 A 
ATOM      2  C   UNL     1      47.862  82.507  40.501  0.00  0.00    +0.150 A 
ATOM      3  C   UNL     1      46.755  82.292  39.717  0.00  0.00    +0.011 A 
ATOM      4  C   UNL     1      46.003  81.133  39.869  0.00  0.00    +0.053 A 
ATOM      5  C   UNL     1      46.370  80.186  40.817  0.00  0.00    +0.064 A 
ATOM      6  C   UNL     1      47.480  80.420  41.590  0.00  0.00    +0.034 A 
ATOM      7  N   UNL     1      45.687  79.045  41.014  0.00  0.00    -0.328 N 
ATOM      8  C   UNL     1      44.597  78.805  40.262  0.00  0.00    +0.086 A 
ATOM      9  C   UNL     1      44.193  79.719  39.306  0.00  0.00    +0.136 A 
ATOM     10  C   UNL     1      44.890  80.885  39.103  0.00  0.00    +0.205 A 
ATOM     11  O   UNL     1      44.556  81.739  38.246  0.00  0.00    -0.286 OA
ATOM     12  C   UNL     1      46.367  83.305  38.708  0.00  0.00    +0.034 C 
ATOM     13  F   UNL     1      48.602  83.629  40.363  0.00  0.00    -0.203 F 
ENDROOT
BRANCH   1  17
ATOM     14  C   UNL     1      52.929  82.641  42.041  0.00  0.00    +0.021 C 
ATOM     15  C   UNL     1      51.727  81.904  42.553  0.00  0.00    +0.093 C 
ATOM     16  C   UNL     1      50.528  82.355  41.730  0.00  0.00    +0.108 C 
ATOM     17  N   UNL     1      49.365  81.735  42.282  0.00  0.00    -0.303 N 
ATOM     18  C   UNL     1      49.235  81.246  43.631  0.00  0.00    +0.110 C 
ATOM     19  C   UNL     1      50.461  81.405  44.457  0.00  0.00    +0.110 C 
ATOM     20  N   UNL     1      51.441  82.297  43.929  0.00  0.00    -0.216 NA
ENDBRANCH   1  17
BRANCH   9  21
ATOM     21  C   UNL     1      43.018  79.458  38.496  0.00  0.00    +0.392 C 
ATOM     22  O   UNL     1      42.309  78.460  38.677  0.00  0.00    -0.240 OA
ATOM     23  O   UNL     1      42.661  80.349  37.480  0.00  0.00    -0.240 OA
ENDBRANCH   9  21
BRANCH   7  24
ATOM     24  C   UNL     1      46.119  78.117  42.004  0.00  0.00    +0.086 C 
ATOM     25  C   UNL     1      45.353  76.905  42.357  0.00  0.00    +0.024 C 
ATOM     26  C   UNL     1      46.508  76.727  41.453  0.00  0.00    +0.024 C 
ENDBRANCH   7  24
TORSDOF 3
