REMARK  Name = Griseofulvin
REMARK  3 active torsions:
REMARK  status: ('A' for Active; 'I' for Inactive)
REMARK    1  A    between atoms: C_7  and  O_23
REMARK    2  A    between atoms: C_15  and  O_20
REMARK    3  A    between atoms: C_17  and  O_18
REMARK                            x       y       z     vdW  Elec       q    Type
REMARK                         _______ _______ _______ _____ _____    ______ ____
ROOT
ATOM      1  C   UNL     1      47.704  80.388  38.308  0.00  0.00    +0.005 C 
ATOM      2  C   UNL     1      47.638  81.784  38.891  0.00  0.00    +0.059 C 
ATOM      3  C   UNL     1      46.371  82.448  38.401  0.00  0.00    +0.074 C 
ATOM      4  C   UNL     1      45.211  81.844  39.108  0.00  0.00    +0.176 C 
ATOM      5  O   UNL     1      44.069  82.299  38.841  0.00  0.00    -0.291 OA
ATOM      6  C   UNL     1      45.387  80.754  40.083  0.00  0.00    +0.074 C 
ATOM      7  C   UNL     1      46.548  80.655  40.723  0.00  0.00    +0.162 C 
ATOM      8  C   UNL     1      47.585  81.643  40.415  0.00  0.00    +0.237 C 
ATOM      9  C   UNL     1      48.946  81.222  40.839  0.00  0.00    +0.222 C 
ATOM     10  O   UNL     1      49.682  80.347  40.334  0.00  0.00    -0.287 OA
ATOM     11  C   UNL     1      49.298  82.038  41.998  0.00  0.00    +0.107 A 
ATOM     12  C   UNL     1      48.336  83.023  42.070  0.00  0.00    +0.159 A 
ATOM     13  O   UNL     1      47.402  82.886  41.038  0.00  0.00    -0.467 OA
ATOM     14  C   UNL     1      48.396  83.980  43.091  0.00  0.00    +0.126 A 
ATOM     15  C   UNL     1      49.426  83.910  44.008  0.00  0.00    +0.155 A 
ATOM     16  C   UNL     1      50.374  82.911  43.908  0.00  0.00    +0.075 A 
ATOM     17  C   UNL     1      50.341  81.972  42.930  0.00  0.00    +0.148 A 
ATOM     18 CL   UNL     1      47.167  85.228  43.172  0.00  0.00    -0.076 Cl
ENDROOT
BRANCH  17  19
ATOM     19  O   UNL     1      51.242  80.947  42.760  0.00  0.00    -0.471 OA
ATOM     20  C   UNL     1      52.553  80.929  43.217  0.00  0.00    +0.252 C 
ENDBRANCH  17  19
BRANCH  15  21
ATOM     21  O   UNL     1      49.496  84.861  45.033  0.00  0.00    -0.470 OA
ATOM     22  C   UNL     1      50.758  85.429  45.353  0.00  0.00    +0.253 C 
ENDBRANCH  15  21
BRANCH   7  23
ATOM     23  O   UNL     1      46.770  79.657  41.645  0.00  0.00    -0.472 OA
ATOM     24  C   UNL     1      45.758  78.755  42.075  0.00  0.00    +0.252 C 
ENDBRANCH   7  23
TORSDOF 3
