REMARK  Name = GS-7340
REMARK  12 active torsions:
REMARK  status: ('A' for Active; 'I' for Inactive)
REMARK    1  A    between atoms: C_2  and  O_4
REMARK    2  A    between atoms: O_4  and  C_5
REMARK    3  A    between atoms: C_5  and  C_7
REMARK    4  A    between atoms: C_7  and  N_9
REMARK    5  A    between atoms: N_9  and  P_10
REMARK    6  A    between atoms: P_10  and  C_12
REMARK    7  A    between atoms: P_10  and  O_27
REMARK    8  A    between atoms: C_12  and  O_13
REMARK    9  A    between atoms: O_13  and  C_14
REMARK   10  A    between atoms: C_14  and  C_16
REMARK   11  A    between atoms: C_16  and  N_17
REMARK   12  A    between atoms: O_27  and  C_28
REMARK                            x       y       z     vdW  Elec       q    Type
REMARK                         _______ _______ _______ _____ _____    ______ ____
ROOT
ATOM      1  P   UNL     1      49.026  80.022  43.643  0.00  0.00    +0.375 P 
ATOM      2  O   UNL     1      48.791  80.593  45.019  0.00  0.00    -0.254 OA
ENDROOT
BRANCH   1   3
ATOM      3  N   UNL     1      50.620  79.303  43.520  0.00  0.00    -0.124 NA
BRANCH   3   4
ATOM      4  C   UNL     1      50.692  78.309  42.481  0.00  0.00    +0.181 C 
ATOM      5  C   UNL     1      51.715  77.242  42.740  0.00  0.00    +0.031 C 
BRANCH   4   6
ATOM      6  C   UNL     1      50.981  78.977  41.194  0.00  0.00    +0.333 C 
ATOM      7  O   UNL     1      51.300  80.207  41.233  0.00  0.00    -0.249 OA
BRANCH   6   8
ATOM      8  O   UNL     1      50.926  78.355  39.957  0.00  0.00    -0.451 OA
BRANCH   8  10
ATOM      9  C   UNL     1      50.434  78.335  37.655  0.00  0.00    +0.047 C 
ATOM     10  C   UNL     1      51.209  79.071  38.748  0.00  0.00    +0.169 C 
ATOM     11  C   UNL     1      52.691  79.032  38.513  0.00  0.00    +0.047 C 
ENDBRANCH   8  10
ENDBRANCH   6   8
ENDBRANCH   4   6
ENDBRANCH   3   4
ENDBRANCH   1   3
BRANCH   1  12
ATOM     12  C   UNL     1      47.746  78.850  43.134  0.00  0.00    +0.259 C 
BRANCH  12  13
ATOM     13  O   UNL     1      46.519  79.062  43.671  0.00  0.00    -0.343 OA
BRANCH  13  14
ATOM     14  C   UNL     1      45.419  78.660  42.984  0.00  0.00    +0.139 C 
ATOM     15  C   UNL     1      44.738  77.449  43.603  0.00  0.00    +0.034 C 
BRANCH  14  16
ATOM     16  C   UNL     1      45.668  78.290  41.539  0.00  0.00    +0.138 C 
BRANCH  16  17
ATOM     17  N   UNL     1      46.080  79.460  40.793  0.00  0.00    -0.292 N 
ATOM     18  C   UNL     1      47.250  80.135  40.903  0.00  0.00    +0.180 A 
ATOM     19  N   UNL     1      47.281  81.169  40.047  0.00  0.00    -0.219 NA
ATOM     20  C   UNL     1      46.129  81.174  39.374  0.00  0.00    +0.152 A 
ATOM     21  C   UNL     1      45.656  82.018  38.389  0.00  0.00    +0.192 A 
ATOM     22  N   UNL     1      44.437  81.756  37.904  0.00  0.00    -0.204 NA
ATOM     23  C   UNL     1      43.682  80.728  38.334  0.00  0.00    +0.202 A 
ATOM     24  N   UNL     1      44.167  79.924  39.293  0.00  0.00    -0.205 NA
ATOM     25  C   UNL     1      45.378  80.099  39.847  0.00  0.00    +0.167 A 
ATOM     26  N   UNL     1      46.481  83.091  37.961  0.00  0.00    -0.105 NA
ENDBRANCH  16  17
ENDBRANCH  14  16
ENDBRANCH  13  14
ENDBRANCH  12  13
ENDBRANCH   1  12
BRANCH   1  27
ATOM     27  O   UNL     1      49.049  81.389  42.572  0.00  0.00    -0.428 OA
BRANCH  27  28
ATOM     28  C   UNL     1      49.067  82.682  43.008  0.00  0.00    +0.146 A 
ATOM     29  C   UNL     1      47.949  83.486  42.925  0.00  0.00    +0.037 A 
ATOM     30  C   UNL     1      48.018  84.780  43.377  0.00  0.00    +0.003 A 
ATOM     31  C   UNL     1      49.207  85.254  43.908  0.00  0.00    +0.000 A 
ATOM     32  C   UNL     1      50.330  84.443  43.991  0.00  0.00    +0.003 A 
ATOM     33  C   UNL     1      50.270  83.155  43.544  0.00  0.00    +0.037 A 
ENDBRANCH  27  28
ENDBRANCH   1  27
TORSDOF 12
