REMARK  Name = Guaimesal
REMARK  3 active torsions:
REMARK  status: ('A' for Active; 'I' for Inactive)
REMARK    1  A    between atoms: C_2  and  O_13
REMARK    2  A    between atoms: O_13  and  C_14
REMARK    3  A    between atoms: C_19  and  O_20
REMARK                            x       y       z     vdW  Elec       q    Type
REMARK                         _______ _______ _______ _____ _____    ______ ____
ROOT
ATOM      1  C   UNL     1      45.754  82.991  42.408  0.00  0.00    +0.146 C 
ATOM      2  C   UNL     1      46.908  82.168  41.950  0.00  0.00    +0.432 C 
ATOM      3  O   UNL     1      46.606  80.765  42.007  0.00  0.00    -0.418 OA
ATOM      4  C   UNL     1      45.827  80.149  41.035  0.00  0.00    +0.152 A 
ATOM      5  C   UNL     1      45.157  78.965  41.283  0.00  0.00    +0.037 A 
ATOM      6  C   UNL     1      44.394  78.384  40.296  0.00  0.00    +0.003 A 
ATOM      7  C   UNL     1      44.291  78.973  39.058  0.00  0.00    +0.000 A 
ATOM      8  C   UNL     1      44.961  80.150  38.820  0.00  0.00    +0.010 A 
ATOM      9  C   UNL     1      45.736  80.751  39.803  0.00  0.00    +0.110 A 
ATOM     10  C   UNL     1      46.453  81.994  39.577  0.00  0.00    +0.349 C 
ATOM     11  O   UNL     1      46.390  82.575  38.455  0.00  0.00    -0.245 OA
ATOM     12  O   UNL     1      47.206  82.536  40.605  0.00  0.00    -0.384 OA
ENDROOT
BRANCH   2  13
ATOM     13  O   UNL     1      48.003  82.356  42.795  0.00  0.00    -0.415 OA
BRANCH  13  14
ATOM     14  C   UNL     1      49.330  82.120  42.450  0.00  0.00    +0.179 A 
ATOM     15  C   UNL     1      49.750  80.912  41.938  0.00  0.00    +0.040 A 
ATOM     16  C   UNL     1      51.062  80.676  41.598  0.00  0.00    +0.003 A 
ATOM     17  C   UNL     1      52.000  81.671  41.770  0.00  0.00    +0.003 A 
ATOM     18  C   UNL     1      51.576  82.874  42.281  0.00  0.00    +0.040 A 
ATOM     19  C   UNL     1      50.270  83.115  42.621  0.00  0.00    +0.173 A 
BRANCH  19  20
ATOM     20  O   UNL     1      49.879  84.341  43.134  0.00  0.00    -0.468 OA
ATOM     21  C   UNL     1      50.783  85.079  43.968  0.00  0.00    +0.253 C 
ENDBRANCH  19  20
ENDBRANCH  13  14
ENDBRANCH   2  13
TORSDOF 3
