REMARK  Name = Guanfacine_extended_release
REMARK  16 active torsions:
REMARK  status: ('A' for Active; 'I' for Inactive)
REMARK    1  A    between atoms: C_2  and  C_3
REMARK    2  A    between atoms: C_3  and  C_4
REMARK    3  A    between atoms: C_4  and  C_5
REMARK    4  A    between atoms: C_5  and  C_6
REMARK    5  A    between atoms: C_6  and  C_7
REMARK    6  A    between atoms: C_7  and  C_8
REMARK    7  A    between atoms: C_8  and  C_9
REMARK    8  A    between atoms: C_9  and  C_10
REMARK    9  A    between atoms: C_10  and  C_11
REMARK   10  A    between atoms: C_11  and  C_12
REMARK   11  A    between atoms: C_12  and  C_13
REMARK   12  A    between atoms: C_13  and  C_14
REMARK   13  A    between atoms: C_14  and  C_15
REMARK   14  A    between atoms: C_15  and  C_16
REMARK   15  A    between atoms: N_18  and  C_19
REMARK   16  A    between atoms: C_19  and  C_20
REMARK                            x       y       z     vdW  Elec       q    Type
REMARK                         _______ _______ _______ _____ _____    ______ ____
ROOT
ATOM      1  C   UNL     1      45.422  79.059  40.231  0.00  0.00    +0.000 C 
ENDROOT
BRANCH   1   2
ATOM      2  C   UNL     1      45.975  79.736  41.478  0.00  0.00    +0.000 C 
BRANCH   2   3
ATOM      3  C   UNL     1      47.458  79.955  41.356  0.00  0.00    +0.000 C 
BRANCH   3   4
ATOM      4  C   UNL     1      47.876  81.394  41.598  0.00  0.00    +0.000 C 
BRANCH   4   5
ATOM      5  C   UNL     1      48.244  81.613  43.023  0.00  0.00    +0.000 C 
BRANCH   5   6
ATOM      6  C   UNL     1      49.663  82.038  43.271  0.00  0.00    +0.000 C 
BRANCH   6   7
ATOM      7  C   UNL     1      49.789  83.527  42.950  0.00  0.00    +0.000 C 
BRANCH   7   8
ATOM      8  C   UNL     1      51.174  84.023  43.207  0.00  0.00    +0.000 C 
BRANCH   8   9
ATOM      9  C   UNL     1      52.014  83.900  41.974  0.00  0.00    +0.000 C 
BRANCH   9  11
ATOM     10  C   UNL     1      54.266  84.183  40.999  0.00  0.00    +0.000 C 
ATOM     11  C   UNL     1      53.420  84.350  42.259  0.00  0.00    +0.000 C 
ENDBRANCH   9  11
ENDBRANCH   8   9
ENDBRANCH   7   8
ENDBRANCH   6   7
ENDBRANCH   5   6
ENDBRANCH   4   5
ENDBRANCH   3   4
ENDBRANCH   2   3
ENDBRANCH   1   2
BRANCH   1  12
ATOM     12  C   UNL     1      44.016  78.583  40.402  0.00  0.00    +0.000 C 
BRANCH  12  13
ATOM     13  C   UNL     1      43.488  78.047  39.081  0.00  0.00    +0.001 C 
BRANCH  13  14
ATOM     14  C   UNL     1      42.135  77.446  39.209  0.00  0.00    +0.010 C 
BRANCH  14  15
ATOM     15  C   UNL     1      41.066  78.446  38.880  0.00  0.00    +0.087 C 
BRANCH  15  16
ATOM     16  C   UNL     1      40.145  77.905  37.868  0.00  0.00    +0.241 C 
ATOM     17  O   UNL     1      39.376  78.649  37.243  0.00  0.00    -0.273 OA
ATOM     18  N   UNL     1      40.158  76.520  37.628  0.00  0.00    -0.203 NA
BRANCH  18  19
ATOM     19  C   UNL     1      39.278  75.919  36.672  0.00  0.00    +0.151 C 
BRANCH  19  20
ATOM     20  C   UNL     1      39.552  74.441  36.590  0.00  0.00    +0.205 C 
ATOM     21  O   UNL     1      40.931  74.295  36.413  0.00  0.00    -0.218 OA
ENDBRANCH  19  20
ENDBRANCH  18  19
ENDBRANCH  15  16
ENDBRANCH  14  15
ENDBRANCH  13  14
ENDBRANCH  12  13
ENDBRANCH   1  12
TORSDOF 16
