REMARK  Name = Guanadrel_Sulfate
REMARK  4 active torsions:
REMARK  status: ('A' for Active; 'I' for Inactive)
REMARK    1  A    between atoms: C_9  and  C_11
REMARK    2  A    between atoms: C_11  and  N_12
REMARK    3  A    between atoms: C_24  and  C_26
REMARK    4  A    between atoms: C_26  and  N_27
REMARK                            x       y       z     vdW  Elec       q    Type
REMARK                         _______ _______ _______ _____ _____    ______ ____
ROOT
ATOM      1  C   UNL     1      44.595  77.880  40.011  0.00  0.00    +0.000 C 
ATOM      2  C   UNL     1      45.320  78.436  38.809  0.00  0.00    +0.005 C 
ATOM      3  C   UNL     1      45.424  79.927  38.824  0.00  0.00    +0.056 C 
ATOM      4  C   UNL     1      45.784  80.489  40.180  0.00  0.00    +0.187 C 
ATOM      5  C   UNL     1      44.932  79.925  41.288  0.00  0.00    +0.056 C 
ATOM      6  C   UNL     1      43.877  79.041  40.673  0.00  0.00    +0.005 C 
ATOM      7  O   UNL     1      45.558  81.864  40.139  0.00  0.00    -0.332 OA
ATOM      8  C   UNL     1      46.582  82.383  40.937  0.00  0.00    +0.176 C 
ATOM      9  C   UNL     1      47.740  81.537  40.432  0.00  0.00    +0.171 C 
ATOM     10  O   UNL     1      47.127  80.288  40.381  0.00  0.00    -0.332 OA
ENDROOT
BRANCH   9  11
ATOM     11  C   UNL     1      48.909  81.564  41.379  0.00  0.00    +0.161 C 
BRANCH  11  12
ATOM     12  N   UNL     1      50.020  80.904  40.678  0.00  0.00    -0.231 NA
ATOM     13  C   UNL     1      51.198  81.398  40.682  0.00  0.00    +0.284 C 
ATOM     14  N   UNL     1      51.876  81.555  39.446  0.00  0.00    -0.104 NA
ATOM     15  N   UNL     1      51.791  81.773  41.901  0.00  0.00    -0.104 NA
ENDBRANCH  11  12
ENDBRANCH   9  11
TORSDOF 2
REMARK  Name = Guanadrel_Sulfate
REMARK  4 active torsions:
REMARK  status: ('A' for Active; 'I' for Inactive)
REMARK    1  A    between atoms: C_9  and  C_11
REMARK    2  A    between atoms: C_11  and  N_12
REMARK    3  A    between atoms: C_24  and  C_26
REMARK    4  A    between atoms: C_26  and  N_27
REMARK                            x       y       z     vdW  Elec       q    Type
REMARK                         _______ _______ _______ _____ _____    ______ ____
ROOT
ATOM      1  C   UNL     1      43.863  79.089  39.087  0.00  0.00    +0.000 C 
ATOM      2  C   UNL     1      43.786  79.794  40.446  0.00  0.00    +0.005 C 
ATOM      3  C   UNL     1      45.086  79.521  41.134  0.00  0.00    +0.056 C 
ATOM      4  C   UNL     1      46.272  80.090  40.392  0.00  0.00    +0.187 C 
ATOM      5  C   UNL     1      46.243  79.796  38.921  0.00  0.00    +0.056 C 
ATOM      6  C   UNL     1      44.896  79.893  38.298  0.00  0.00    +0.005 C 
ATOM      7  O   UNL     1      47.410  79.490  40.919  0.00  0.00    -0.332 OA
ATOM      8  C   UNL     1      48.199  80.483  41.464  0.00  0.00    +0.176 C 
ATOM      9  C   UNL     1      47.171  81.544  41.793  0.00  0.00    +0.171 C 
ATOM     10  O   UNL     1      46.336  81.439  40.672  0.00  0.00    -0.332 OA
ENDROOT
BRANCH   9  11
ATOM     11  C   UNL     1      47.801  82.915  41.891  0.00  0.00    +0.161 C 
BRANCH  11  12
ATOM     12  N   UNL     1      47.400  83.604  43.098  0.00  0.00    -0.231 NA
ATOM     13  C   UNL     1      47.744  84.822  43.348  0.00  0.00    +0.284 C 
ATOM     14  N   UNL     1      49.129  85.136  43.303  0.00  0.00    -0.104 NA
ATOM     15  N   UNL     1      46.820  85.839  43.659  0.00  0.00    -0.104 NA
ENDBRANCH  11  12
ENDBRANCH   9  11
TORSDOF 2
REMARK  Name = Guanadrel_Sulfate
REMARK  4 active torsions:
REMARK  status: ('A' for Active; 'I' for Inactive)
REMARK    1  A    between atoms: C_9  and  C_11
REMARK    2  A    between atoms: C_11  and  N_12
REMARK    3  A    between atoms: C_24  and  C_26
REMARK    4  A    between atoms: C_26  and  N_27
REMARK                            x       y       z     vdW  Elec       q    Type
REMARK                         _______ _______ _______ _____ _____    ______ ____
ROOT
ATOM      1  O   UNL     1      46.156  79.773  40.869  0.00  0.00    -0.020 OA
ATOM      2  S   UNL     1      46.897  81.240  40.576  0.00  0.00    +0.267 S 
ATOM      3  O   UNL     1      45.944  82.323  41.036  0.00  0.00    -0.113 OA
ATOM      4  O   UNL     1      47.144  81.473  39.119  0.00  0.00    -0.113 OA
ATOM      5  O   UNL     1      48.297  81.399  41.476  0.00  0.00    -0.020 OA
ENDROOT
TORSDOF 0
