REMARK  Name = Guggulsterone
REMARK  0 active torsions:
REMARK  status: ('A' for Active; 'I' for Inactive)
REMARK                            x       y       z     vdW  Elec       q    Type
REMARK                         _______ _______ _______ _____ _____    ______ ____
ROOT
ATOM      1  C   UNL     1      50.747  85.385  43.290  0.00  0.00    +0.030 C 
ATOM      2  C   UNL     1      51.148  84.204  42.519  0.00  0.00    -0.027 C 
ATOM      3  C   UNL     1      50.404  83.103  42.379  0.00  0.00    +0.008 C 
ATOM      4  C   UNL     1      50.957  81.746  42.188  0.00  0.00    +0.169 C 
ATOM      5  O   UNL     1      52.165  81.457  42.306  0.00  0.00    -0.292 OA
ATOM      6  C   UNL     1      49.803  80.834  41.837  0.00  0.00    +0.069 C 
ATOM      7  C   UNL     1      48.753  81.487  42.683  0.00  0.00    +0.012 C 
ATOM      8  C   UNL     1      48.945  82.935  42.361  0.00  0.00    +0.022 C 
ATOM      9  C   UNL     1      48.511  83.164  40.943  0.00  0.00    +0.004 C 
ATOM     10  C   UNL     1      47.331  82.436  40.460  0.00  0.00    +0.001 C 
ATOM     11  C   UNL     1      46.557  81.624  41.434  0.00  0.00    +0.003 C 
ATOM     12  C   UNL     1      47.349  80.971  42.503  0.00  0.00    +0.001 C 
ATOM     13  C   UNL     1      47.416  79.473  42.456  0.00  0.00    +0.004 C 
ATOM     14  C   UNL     1      47.293  78.893  41.081  0.00  0.00    +0.022 C 
ATOM     15  C   UNL     1      46.328  79.539  40.209  0.00  0.00    -0.042 C 
ATOM     16  C   UNL     1      46.146  78.994  38.993  0.00  0.00    +0.029 C 
ATOM     17  C   UNL     1      45.192  79.589  38.065  0.00  0.00    +0.173 C 
ATOM     18  O   UNL     1      45.210  79.361  36.841  0.00  0.00    -0.291 OA
ATOM     19  C   UNL     1      44.184  80.493  38.661  0.00  0.00    +0.069 C 
ATOM     20  C   UNL     1      44.951  81.462  39.535  0.00  0.00    +0.012 C 
ATOM     21  C   UNL     1      45.611  80.717  40.675  0.00  0.00    +0.016 C 
ATOM     22  C   UNL     1      44.474  80.363  41.630  0.00  0.00    +0.004 C 
ATOM     23  C   UNL     1      48.206  83.819  43.343  0.00  0.00    +0.004 C 
ENDROOT
TORSDOF 0
