REMARK  Name = Gusperimus_trihydrochloride
REMARK  17 active torsions:
REMARK  status: ('A' for Active; 'I' for Inactive)
REMARK    1  A    between atoms: C_1  and  C_2
REMARK    2  A    between atoms: C_1  and  C_9
REMARK    3  A    between atoms: C_2  and  C_3
REMARK    4  A    between atoms: C_3  and  C_4
REMARK    5  A    between atoms: C_4  and  N_5
REMARK    6  A    between atoms: C_9  and  C_10
REMARK    7  A    between atoms: C_10  and  C_11
REMARK    8  A    between atoms: N_13  and  C_14
REMARK    9  A    between atoms: C_14  and  C_15
REMARK   10  A    between atoms: N_17  and  C_18
REMARK   11  A    between atoms: C_18  and  C_19
REMARK   12  A    between atoms: C_19  and  C_20
REMARK   13  A    between atoms: C_20  and  C_21
REMARK   14  A    between atoms: C_21  and  N_22
REMARK   15  A    between atoms: N_22  and  C_23
REMARK   16  A    between atoms: C_23  and  C_24
REMARK   17  A    between atoms: C_24  and  C_25
REMARK                            x       y       z     vdW  Elec       q    Type
REMARK                         _______ _______ _______ _____ _____    ______ ____
ROOT
ATOM      1  C   UNL     1      45.274  80.285  38.588  0.00  0.00    +0.324 C 
ATOM      2  O   UNL     1      44.687  81.376  37.950  0.00  0.00    -0.189 OA
ENDROOT
BRANCH   1   3
ATOM      3  C   UNL     1      44.239  79.182  38.597  0.00  0.00    +0.293 C 
ATOM      4  O   UNL     1      44.532  78.076  39.120  0.00  0.00    -0.269 OA
ATOM      5  N   UNL     1      42.965  79.358  38.041  0.00  0.00    -0.202 NA
BRANCH   5   6
ATOM      6  C   UNL     1      41.914  78.344  38.017  0.00  0.00    +0.115 C 
BRANCH   6   7
ATOM      7  C   UNL     1      41.540  77.965  39.403  0.00  0.00    +0.025 C 
BRANCH   7   8
ATOM      8  C   UNL     1      40.464  76.958  39.569  0.00  0.00    +0.021 C 
BRANCH   8   9
ATOM      9  C   UNL     1      40.690  75.619  38.975  0.00  0.00    +0.089 C 
BRANCH   9  10
ATOM     10  N   UNL     1      40.849  75.697  37.559  0.00  0.00    -0.218 NA
BRANCH  10  11
ATOM     11  C   UNL     1      39.639  76.069  36.889  0.00  0.00    +0.090 C 
BRANCH  11  12
ATOM     12  C   UNL     1      39.897  76.129  35.406  0.00  0.00    +0.039 C 
BRANCH  12  13
ATOM     13  C   UNL     1      40.354  74.835  34.814  0.00  0.00    +0.111 C 
ATOM     14  N   UNL     1      39.308  73.842  35.057  0.00  0.00    -0.131 NA
ENDBRANCH  12  13
ENDBRANCH  11  12
ENDBRANCH  10  11
ENDBRANCH   9  10
ENDBRANCH   8   9
ENDBRANCH   7   8
ENDBRANCH   6   7
ENDBRANCH   5   6
ENDBRANCH   1   3
BRANCH   1  17
ATOM     15  C   UNL     1      46.837  80.526  40.484  0.00  0.00    +0.244 C 
ATOM     16  O   UNL     1      47.761  80.109  39.768  0.00  0.00    -0.273 OA
ATOM     17  N   UNL     1      45.517  80.650  39.957  0.00  0.00    -0.167 NA
BRANCH  15  18
ATOM     18  C   UNL     1      47.063  80.904  41.885  0.00  0.00    +0.087 C 
BRANCH  18  19
ATOM     19  C   UNL     1      48.518  80.871  42.242  0.00  0.00    +0.010 C 
BRANCH  19  20
ATOM     20  C   UNL     1      49.288  81.865  41.454  0.00  0.00    +0.001 C 
BRANCH  20  21
ATOM     21  C   UNL     1      50.764  81.870  41.790  0.00  0.00    +0.002 C 
BRANCH  21  22
ATOM     22  C   UNL     1      51.091  82.174  43.202  0.00  0.00    +0.026 C 
BRANCH  22  23
ATOM     23  C   UNL     1      50.650  83.497  43.722  0.00  0.00    +0.129 C 
BRANCH  23  24
ATOM     24  N   UNL     1      49.245  83.744  43.694  0.00  0.00    -0.234 NA
ATOM     25  C   UNL     1      48.751  84.933  43.748  0.00  0.00    +0.284 C 
ATOM     26  N   UNL     1      49.643  86.026  43.838  0.00  0.00    -0.104 NA
ATOM     27  N   UNL     1      47.367  85.205  43.722  0.00  0.00    -0.104 NA
ENDBRANCH  23  24
ENDBRANCH  22  23
ENDBRANCH  21  22
ENDBRANCH  20  21
ENDBRANCH  19  20
ENDBRANCH  18  19
ENDBRANCH  15  18
ENDBRANCH   1  17
TORSDOF 17
REMARK  Name = Gusperimus_trihydrochloride
REMARK  17 active torsions:
REMARK  status: ('A' for Active; 'I' for Inactive)
REMARK    1  A    between atoms: C_1  and  C_2
REMARK    2  A    between atoms: C_1  and  C_9
REMARK    3  A    between atoms: C_2  and  C_3
REMARK    4  A    between atoms: C_3  and  C_4
REMARK    5  A    between atoms: C_4  and  N_5
REMARK    6  A    between atoms: C_9  and  C_10
REMARK    7  A    between atoms: C_10  and  C_11
REMARK    8  A    between atoms: N_13  and  C_14
REMARK    9  A    between atoms: C_14  and  C_15
REMARK   10  A    between atoms: N_17  and  C_18
REMARK   11  A    between atoms: C_18  and  C_19
REMARK   12  A    between atoms: C_19  and  C_20
REMARK   13  A    between atoms: C_20  and  C_21
REMARK   14  A    between atoms: C_21  and  N_22
REMARK   15  A    between atoms: N_22  and  C_23
REMARK   16  A    between atoms: C_23  and  C_24
REMARK   17  A    between atoms: C_24  and  C_25
REMARK                            x       y       z     vdW  Elec       q    Type
REMARK                         _______ _______ _______ _____ _____    ______ ____
ROOT
ATOM      1 CL   UNL     1      45.367  80.070  40.204  0.00  0.00    +0.000 Cl
ENDROOT
TORSDOF 0
REMARK  Name = Gusperimus_trihydrochloride
REMARK  17 active torsions:
REMARK  status: ('A' for Active; 'I' for Inactive)
REMARK    1  A    between atoms: C_1  and  C_2
REMARK    2  A    between atoms: C_1  and  C_9
REMARK    3  A    between atoms: C_2  and  C_3
REMARK    4  A    between atoms: C_3  and  C_4
REMARK    5  A    between atoms: C_4  and  N_5
REMARK    6  A    between atoms: C_9  and  C_10
REMARK    7  A    between atoms: C_10  and  C_11
REMARK    8  A    between atoms: N_13  and  C_14
REMARK    9  A    between atoms: C_14  and  C_15
REMARK   10  A    between atoms: N_17  and  C_18
REMARK   11  A    between atoms: C_18  and  C_19
REMARK   12  A    between atoms: C_19  and  C_20
REMARK   13  A    between atoms: C_20  and  C_21
REMARK   14  A    between atoms: C_21  and  N_22
REMARK   15  A    between atoms: N_22  and  C_23
REMARK   16  A    between atoms: C_23  and  C_24
REMARK   17  A    between atoms: C_24  and  C_25
REMARK                            x       y       z     vdW  Elec       q    Type
REMARK                         _______ _______ _______ _____ _____    ______ ____
ROOT
ATOM      1 CL   UNL     1      45.372  80.074  40.208  0.00  0.00    +0.000 Cl
ENDROOT
TORSDOF 0
REMARK  Name = Gusperimus_trihydrochloride
REMARK  17 active torsions:
REMARK  status: ('A' for Active; 'I' for Inactive)
REMARK    1  A    between atoms: C_1  and  C_2
REMARK    2  A    between atoms: C_1  and  C_9
REMARK    3  A    between atoms: C_2  and  C_3
REMARK    4  A    between atoms: C_3  and  C_4
REMARK    5  A    between atoms: C_4  and  N_5
REMARK    6  A    between atoms: C_9  and  C_10
REMARK    7  A    between atoms: C_10  and  C_11
REMARK    8  A    between atoms: N_13  and  C_14
REMARK    9  A    between atoms: C_14  and  C_15
REMARK   10  A    between atoms: N_17  and  C_18
REMARK   11  A    between atoms: C_18  and  C_19
REMARK   12  A    between atoms: C_19  and  C_20
REMARK   13  A    between atoms: C_20  and  C_21
REMARK   14  A    between atoms: C_21  and  N_22
REMARK   15  A    between atoms: N_22  and  C_23
REMARK   16  A    between atoms: C_23  and  C_24
REMARK   17  A    between atoms: C_24  and  C_25
REMARK                            x       y       z     vdW  Elec       q    Type
REMARK                         _______ _______ _______ _____ _____    ______ ____
ROOT
ATOM      1 CL   UNL     1      45.371  80.073  40.207  0.00  0.00    +0.000 Cl
ENDROOT
TORSDOF 0
