REMARK  Name = GW642444
REMARK  16 active torsions:
REMARK  status: ('A' for Active; 'I' for Inactive)
REMARK    1  A    between atoms: C_4  and  C_8
REMARK    2  A    between atoms: C_8  and  O_9
REMARK    3  A    between atoms: O_9  and  C_10
REMARK    4  A    between atoms: C_10  and  C_11
REMARK    5  A    between atoms: C_11  and  O_12
REMARK    6  A    between atoms: O_12  and  C_13
REMARK    7  A    between atoms: C_13  and  C_14
REMARK    8  A    between atoms: C_14  and  C_15
REMARK    9  A    between atoms: C_15  and  C_16
REMARK   10  A    between atoms: C_16  and  C_17
REMARK   11  A    between atoms: C_17  and  C_18
REMARK   12  A    between atoms: C_18  and  N_19
REMARK   13  A    between atoms: N_19  and  C_20
REMARK   14  A    between atoms: C_20  and  C_21
REMARK   15  A    between atoms: C_21  and  C_22
REMARK   16  A    between atoms: C_24  and  C_29
REMARK                            x       y       z     vdW  Elec       q    Type
REMARK                         _______ _______ _______ _____ _____    ______ ____
ROOT
ATOM      1  C   UNL     1      43.142  78.046  38.579  0.00  0.00    +0.003 C 
ENDROOT
BRANCH   1   2
ATOM      2  C   UNL     1      41.791  77.467  38.858  0.00  0.00    +0.002 C 
BRANCH   2   3
ATOM      3  C   UNL     1      40.821  77.860  37.764  0.00  0.00    +0.019 C 
BRANCH   3   4
ATOM      4  C   UNL     1      39.735  76.816  37.629  0.00  0.00    +0.089 C 
BRANCH   4   5
ATOM      5  N   UNL     1      40.044  75.838  36.617  0.00  0.00    -0.215 NA
BRANCH   5   6
ATOM      6  C   UNL     1      39.071  74.808  36.446  0.00  0.00    +0.126 C 
BRANCH   6   7
ATOM      7  C   UNL     1      39.644  73.798  35.460  0.00  0.00    +0.192 C 
ATOM      8  O   UNL     1      40.793  73.193  35.972  0.00  0.00    -0.217 OA
BRANCH   7   9
ATOM      9  C   UNL     1      38.666  72.879  34.900  0.00  0.00    +0.009 A 
ATOM     10  C   UNL     1      37.891  72.081  35.711  0.00  0.00    -0.000 A 
ATOM     11  C   UNL     1      36.950  71.195  35.218  0.00  0.00    +0.049 A 
ATOM     12  C   UNL     1      36.787  71.113  33.859  0.00  0.00    +0.194 A 
ATOM     13  C   UNL     1      37.546  71.898  33.006  0.00  0.00    +0.042 A 
ATOM     14  C   UNL     1      38.485  72.780  33.541  0.00  0.00    +0.001 A 
ATOM     15  O   UNL     1      35.854  70.238  33.326  0.00  0.00    -0.287 OA
BRANCH  11  16
ATOM     16  C   UNL     1      36.124  70.343  36.107  0.00  0.00    +0.212 C 
ATOM     17  O   UNL     1      34.959  71.088  36.396  0.00  0.00    -0.215 OA
ENDBRANCH  11  16
ENDBRANCH   7   9
ENDBRANCH   6   7
ENDBRANCH   5   6
ENDBRANCH   4   5
ENDBRANCH   3   4
ENDBRANCH   2   3
ENDBRANCH   1   2
BRANCH   1  18
ATOM     18  C   UNL     1      43.512  79.300  39.293  0.00  0.00    +0.032 C 
BRANCH  18  19
ATOM     19  C   UNL     1      44.813  79.085  40.069  0.00  0.00    +0.142 C 
BRANCH  19  20
ATOM     20  O   UNL     1      45.101  80.206  40.763  0.00  0.00    -0.351 OA
BRANCH  20  21
ATOM     21  C   UNL     1      46.156  80.243  41.624  0.00  0.00    +0.174 C 
BRANCH  21  22
ATOM     22  C   UNL     1      46.368  81.634  42.165  0.00  0.00    +0.175 C 
BRANCH  22  23
ATOM     23  O   UNL     1      47.645  81.970  42.217  0.00  0.00    -0.346 OA
BRANCH  23  24
ATOM     24  C   UNL     1      48.125  83.059  41.601  0.00  0.00    +0.170 C 
BRANCH  24  28
ATOM     25  C   UNL     1      51.564  84.756  43.453  0.00  0.00    +0.002 A 
ATOM     26  C   UNL     1      51.778  83.748  42.551  0.00  0.00    +0.011 A 
ATOM     27  C   UNL     1      50.658  83.167  41.951  0.00  0.00    +0.057 A 
ATOM     28  C   UNL     1      49.386  83.540  42.207  0.00  0.00    +0.028 A 
ATOM     29  C   UNL     1      49.210  84.585  43.147  0.00  0.00    +0.057 A 
ATOM     30  C   UNL     1      50.287  85.170  43.748  0.00  0.00    +0.011 A 
ATOM     31 CL   UNL     1      47.565  85.124  43.533  0.00  0.00    -0.082 Cl
ATOM     32 CL   UNL     1      50.987  81.832  40.869  0.00  0.00    -0.082 Cl
ENDBRANCH  24  28
ENDBRANCH  23  24
ENDBRANCH  22  23
ENDBRANCH  21  22
ENDBRANCH  20  21
ENDBRANCH  19  20
ENDBRANCH  18  19
ENDBRANCH   1  18
TORSDOF 16
