REMARK  Name = GW685698X
REMARK  6 active torsions:
REMARK  status: ('A' for Active; 'I' for Inactive)
REMARK    1  A    between atoms: C_19  and  C_20
REMARK    2  A    between atoms: C_19  and  O_25
REMARK    3  A    between atoms: C_20  and  S_22
REMARK    4  A    between atoms: S_22  and  C_23
REMARK    5  A    between atoms: O_25  and  C_26
REMARK    6  A    between atoms: C_26  and  C_28
REMARK                            x       y       z     vdW  Elec       q    Type
REMARK                         _______ _______ _______ _____ _____    ______ ____
ROOT
ATOM      1  C   UNL     1      42.900  77.319  42.448  0.00  0.00    +0.004 C 
ATOM      2  C   UNL     1      43.494  78.316  41.476  0.00  0.00    +0.045 C 
ATOM      3  C   UNL     1      44.673  79.043  42.091  0.00  0.00    +0.004 C 
ATOM      4  C   UNL     1      45.811  78.630  41.234  0.00  0.00    +0.007 C 
ATOM      5  C   UNL     1      46.969  79.576  41.180  0.00  0.00    +0.036 C 
ATOM      6  C   UNL     1      47.584  79.714  42.526  0.00  0.00    +0.042 C 
ATOM      7  C   UNL     1      48.849  80.545  42.523  0.00  0.00    +0.180 C 
ATOM      8  C   UNL     1      48.639  81.746  41.628  0.00  0.00    -0.003 C 
ATOM      9  C   UNL     1      49.056  82.890  42.070  0.00  0.00    +0.036 C 
ATOM     10  C   UNL     1      48.912  84.130  41.322  0.00  0.00    +0.195 C 
ATOM     11  O   UNL     1      49.326  85.235  41.765  0.00  0.00    -0.287 OA
ATOM     12  C   UNL     1      48.257  84.017  40.023  0.00  0.00    +0.038 C 
ATOM     13  C   UNL     1      47.849  82.832  39.607  0.00  0.00    -0.017 C 
ATOM     14  C   UNL     1      47.994  81.573  40.332  0.00  0.00    +0.066 C 
ATOM     15  C   UNL     1      46.624  80.890  40.539  0.00  0.00    +0.168 C 
ATOM     16  C   UNL     1      45.870  80.802  39.282  0.00  0.00    +0.182 C 
ATOM     17  C   UNL     1      45.043  79.615  39.032  0.00  0.00    +0.039 C 
ATOM     18  C   UNL     1      45.256  78.413  39.891  0.00  0.00    +0.044 C 
ATOM     19  C   UNL     1      43.942  77.712  40.177  0.00  0.00    +0.196 C 
ATOM     20  C   UNL     1      46.209  77.463  39.147  0.00  0.00    +0.004 C 
ATOM     21  O   UNL     1      45.042  81.952  39.199  0.00  0.00    -0.220 OA
ATOM     22  F   UNL     1      46.007  81.660  41.511  0.00  0.00    -0.237 F 
ATOM     23  C   UNL     1      48.894  80.610  39.533  0.00  0.00    +0.011 C 
ATOM     24  F   UNL     1      49.090  80.962  43.814  0.00  0.00    -0.233 F 
ENDROOT
BRANCH  19  25
ATOM     25  C   UNL     1      44.105  76.246  40.254  0.00  0.00    +0.237 C 
ATOM     26  O   UNL     1      45.042  75.802  40.894  0.00  0.00    -0.281 OA
BRANCH  25  27
ATOM     27  S   UNL     1      43.029  75.058  39.478  0.00  0.00    -0.036 S 
BRANCH  27  28
ATOM     28  C   UNL     1      43.877  73.506  39.132  0.00  0.00    +0.258 C 
ATOM     29  F   UNL     1      45.217  73.781  38.970  0.00  0.00    -0.221 F 
ENDBRANCH  27  28
ENDBRANCH  25  27
ENDBRANCH  19  25
BRANCH  19  30
ATOM     30  O   UNL     1      43.026  78.077  39.148  0.00  0.00    -0.443 OA
BRANCH  30  31
ATOM     31  C   UNL     1      41.669  78.147  39.307  0.00  0.00    +0.376 C 
ATOM     32  O   UNL     1      41.190  78.436  40.413  0.00  0.00    -0.241 OA
BRANCH  31  33
ATOM     33  C   UNL     1      40.807  77.873  38.145  0.00  0.00    +0.221 A 
ATOM     34  C   UNL     1      41.242  77.704  36.843  0.00  0.00    +0.047 A 
ATOM     35  C   UNL     1      40.126  77.468  36.069  0.00  0.00    +0.044 A 
ATOM     36  C   UNL     1      39.057  77.503  36.936  0.00  0.00    +0.180 A 
ATOM     37  O   UNL     1      39.522  77.743  38.134  0.00  0.00    -0.444 OA
ENDBRANCH  31  33
ENDBRANCH  30  31
ENDBRANCH  19  30
TORSDOF 6
