REMARK  Name = Halaven
REMARK  4 active torsions:
REMARK  status: ('A' for Active; 'I' for Inactive)
REMARK    1  A    between atoms: C_44  and  C_48
REMARK    2  A    between atoms: C_45  and  O_46
REMARK    3  A    between atoms: C_48  and  C_49
REMARK    4  A    between atoms: C_49  and  C_50
REMARK                            x       y       z     vdW  Elec       q    Type
REMARK                         _______ _______ _______ _____ _____    ______ ____
ROOT
ATOM      1  C   UNL     1      52.870  77.365  41.000  0.00  0.00    +0.005 C 
ATOM      2  C   UNL     1      51.544  77.715  41.640  0.00  0.00    +0.023 C 
ATOM      3  C   UNL     1      50.771  76.453  41.951  0.00  0.00    +0.034 C 
ATOM      4  C   UNL     1      49.278  76.664  41.805  0.00  0.00    +0.116 C 
ATOM      5  C   UNL     1      48.539  75.686  42.707  0.00  0.00    +0.032 C 
ATOM      6  C   UNL     1      48.582  74.291  42.170  0.00  0.00    +0.036 C 
ATOM      7  C   UNL     1      47.347  73.485  42.488  0.00  0.00    +0.134 C 
ATOM      8  C   UNL     1      47.275  73.047  43.884  0.00  0.00    -0.015 C 
ATOM      9  C   UNL     1      48.144  72.324  44.574  0.00  0.00    -0.007 C 
ATOM     10  C   UNL     1      46.005  73.572  44.432  0.00  0.00    +0.054 C 
ATOM     11  C   UNL     1      45.263  73.956  43.171  0.00  0.00    +0.120 C 
ATOM     12  O   UNL     1      46.174  74.106  42.160  0.00  0.00    -0.354 OA
ATOM     13  C   UNL     1      44.213  72.905  42.901  0.00  0.00    +0.035 C 
ATOM     14  C   UNL     1      43.604  73.054  41.523  0.00  0.00    +0.059 C 
ATOM     15  C   UNL     1      42.780  74.292  41.395  0.00  0.00    +0.190 C 
ATOM     16  C   UNL     1      41.805  74.358  42.529  0.00  0.00    +0.088 C 
ATOM     17  C   UNL     1      40.837  75.377  41.892  0.00  0.00    +0.150 C 
ATOM     18  C   UNL     1      40.888  75.067  40.384  0.00  0.00    +0.174 C 
ATOM     19  O   UNL     1      41.909  74.220  40.318  0.00  0.00    -0.332 OA
ATOM     20  C   UNL     1      41.004  76.458  39.811  0.00  0.00    +0.174 C 
ATOM     21  C   UNL     1      42.023  76.923  40.847  0.00  0.00    +0.174 C 
ATOM     22  O   UNL     1      41.535  76.553  42.070  0.00  0.00    -0.351 OA
ATOM     23  C   UNL     1      43.263  76.174  40.375  0.00  0.00    +0.176 C 
ATOM     24  O   UNL     1      43.665  75.405  41.337  0.00  0.00    -0.332 OA
ATOM     25  C   UNL     1      43.897  77.160  39.512  0.00  0.00    +0.172 C 
ATOM     26  C   UNL     1      42.673  77.591  38.652  0.00  0.00    +0.145 C 
ATOM     27  O   UNL     1      41.689  76.583  38.607  0.00  0.00    -0.351 OA
ATOM     28  C   UNL     1      43.273  77.881  37.314  0.00  0.00    +0.035 C 
ATOM     29  C   UNL     1      44.614  78.517  37.581  0.00  0.00    +0.033 C 
ATOM     30  C   UNL     1      44.832  79.086  38.915  0.00  0.00    +0.123 C 
ATOM     31  O   UNL     1      44.380  78.324  40.002  0.00  0.00    -0.353 OA
ATOM     32  C   UNL     1      44.378  80.538  39.052  0.00  0.00    +0.094 C 
ATOM     33  C   UNL     1      45.508  81.490  38.870  0.00  0.00    +0.153 C 
ATOM     34  O   UNL     1      45.393  82.433  38.091  0.00  0.00    -0.296 OA
ATOM     35  C   UNL     1      46.796  81.335  39.612  0.00  0.00    +0.070 C 
ATOM     36  C   UNL     1      46.523  81.024  41.036  0.00  0.00    +0.064 C 
ATOM     37  C   UNL     1      47.549  80.247  41.753  0.00  0.00    +0.121 C 
ATOM     38  C   UNL     1      48.904  80.204  41.143  0.00  0.00    +0.063 C 
ATOM     39  C   UNL     1      49.260  78.731  40.896  0.00  0.00    +0.136 C 
ATOM     40  C   UNL     1      50.761  78.643  40.772  0.00  0.00    -0.018 C 
ATOM     41  C   UNL     1      51.398  79.386  39.894  0.00  0.00    -0.007 C 
ATOM     42  O   UNL     1      48.902  77.969  42.006  0.00  0.00    -0.355 OA
ATOM     43  O   UNL     1      47.675  80.920  42.991  0.00  0.00    -0.356 OA
ATOM     44  C   UNL     1      47.750  82.274  42.559  0.00  0.00    +0.145 C 
ATOM     45  C   UNL     1      46.441  82.357  41.838  0.00  0.00    +0.145 C 
ENDROOT
BRANCH  45  46
ATOM     46  O   UNL     1      46.280  83.366  40.936  0.00  0.00    -0.351 OA
ATOM     47  C   UNL     1      46.272  84.587  41.637  0.00  0.00    +0.174 C 
ENDBRANCH  45  46
BRANCH  44  48
ATOM     48  C   UNL     1      47.829  83.177  43.733  0.00  0.00    +0.066 C 
BRANCH  48  49
ATOM     49  C   UNL     1      49.085  83.994  43.708  0.00  0.00    +0.173 C 
ATOM     50  O   UNL     1      49.653  84.014  42.416  0.00  0.00    -0.221 OA
BRANCH  49  51
ATOM     51  C   UNL     1      50.115  83.341  44.646  0.00  0.00    +0.142 C 
ATOM     52  N   UNL     1      50.707  84.356  45.489  0.00  0.00    -0.129 NA
ENDBRANCH  49  51
ENDBRANCH  48  49
ENDBRANCH  44  48
TORSDOF 4
REMARK  Name = Halaven
REMARK  4 active torsions:
REMARK  status: ('A' for Active; 'I' for Inactive)
REMARK    1  A    between atoms: C_44  and  C_48
REMARK    2  A    between atoms: C_45  and  O_46
REMARK    3  A    between atoms: C_48  and  C_49
REMARK    4  A    between atoms: C_49  and  C_50
REMARK                            x       y       z     vdW  Elec       q    Type
REMARK                         _______ _______ _______ _____ _____    ______ ____
ROOT
ATOM      1  C   UNL     1      45.609  77.385  41.282  0.00  0.00    +0.213 C 
ATOM      2  S   UNL     1      46.636  78.835  41.126  0.00  0.00    +0.123 S 
ATOM      3  O   UNL     1      47.228  78.911  39.742  0.00  0.00    -0.144 OA
ATOM      4  O   UNL     1      45.806  80.027  41.452  0.00  0.00    -0.144 OA
ATOM      5  O   UNL     1      47.900  78.716  42.218  0.00  0.00    -0.047 OA
ENDROOT
TORSDOF 0
