REMARK  Name = Halazepam
REMARK  3 active torsions:
REMARK  status: ('A' for Active; 'I' for Inactive)
REMARK    1  A    between atoms: N_4  and  C_20
REMARK    2  A    between atoms: C_12  and  C_14
REMARK    3  A    between atoms: C_20  and  C_21
REMARK                            x       y       z     vdW  Elec       q    Type
REMARK                         _______ _______ _______ _____ _____    ______ ____
ROOT
ATOM      1  C   UNL     1      45.831  79.853  37.411  0.00  0.00    +0.210 C 
ATOM      2  C   UNL     1      46.029  80.898  38.482  0.00  0.00    +0.254 C 
ATOM      3  O   UNL     1      46.257  82.047  38.079  0.00  0.00    -0.272 OA
ATOM      4  N   UNL     1      45.996  80.773  39.928  0.00  0.00    -0.249 N 
ATOM      5  C   UNL     1      45.644  79.507  40.524  0.00  0.00    +0.056 A 
ATOM      6  C   UNL     1      44.868  78.495  39.951  0.00  0.00    +0.032 A 
ATOM      7  C   UNL     1      44.709  77.298  40.620  0.00  0.00    +0.014 A 
ATOM      8  C   UNL     1      45.312  77.125  41.845  0.00  0.00    +0.058 A 
ATOM      9  C   UNL     1      46.064  78.144  42.381  0.00  0.00    +0.013 A 
ATOM     10  C   UNL     1      46.248  79.353  41.737  0.00  0.00    +0.016 A 
ATOM     11 CL   UNL     1      45.081  75.584  42.687  0.00  0.00    -0.082 Cl
ATOM     12  C   UNL     1      44.141  78.559  38.708  0.00  0.00    +0.078 C 
ATOM     13  N   UNL     1      44.579  79.146  37.632  0.00  0.00    -0.261 NA
ENDROOT
BRANCH  12  14
ATOM     14  C   UNL     1      42.848  77.919  38.657  0.00  0.00    +0.017 A 
ATOM     15  C   UNL     1      41.888  78.036  37.711  0.00  0.00    +0.001 A 
ATOM     16  C   UNL     1      40.671  77.411  37.866  0.00  0.00    +0.000 A 
ATOM     17  C   UNL     1      40.345  76.639  38.960  0.00  0.00    +0.000 A 
ATOM     18  C   UNL     1      41.330  76.517  39.927  0.00  0.00    +0.000 A 
ATOM     19  C   UNL     1      42.541  77.132  39.789  0.00  0.00    +0.001 A 
ENDBRANCH  12  14
BRANCH   4  20
ATOM     20  C   UNL     1      46.299  81.885  40.751  0.00  0.00    +0.202 C 
BRANCH  20  21
ATOM     21  C   UNL     1      47.794  82.132  40.898  0.00  0.00    +0.416 C 
ATOM     22  F   UNL     1      48.069  82.994  41.944  0.00  0.00    -0.168 F 
ATOM     23  F   UNL     1      48.488  80.943  41.019  0.00  0.00    -0.168 F 
ATOM     24  F   UNL     1      48.308  82.749  39.768  0.00  0.00    -0.168 F 
ENDBRANCH  20  21
ENDBRANCH   4  20
TORSDOF 3
