REMARK  Name = Halcinonide
REMARK  2 active torsions:
REMARK  status: ('A' for Active; 'I' for Inactive)
REMARK    1  A    between atoms: C_21  and  C_23
REMARK    2  A    between atoms: C_23  and  C_25
REMARK                            x       y       z     vdW  Elec       q    Type
REMARK                         _______ _______ _______ _____ _____    ______ ____
ROOT
ATOM      1  C   UNL     1      49.066  84.730  43.864  0.00  0.00    +0.061 C 
ATOM      2  C   UNL     1      48.434  84.132  42.609  0.00  0.00    +0.188 C 
ATOM      3  O   UNL     1      49.300  84.286  41.539  0.00  0.00    -0.334 OA
ATOM      4  C   UNL     1      49.592  83.017  41.047  0.00  0.00    +0.149 C 
ATOM      5  C   UNL     1      48.584  82.624  39.957  0.00  0.00    +0.033 C 
ATOM      6  C   UNL     1      48.104  81.264  40.250  0.00  0.00    +0.008 C 
ATOM      7  C   UNL     1      46.661  80.969  40.129  0.00  0.00    +0.033 C 
ATOM      8  C   UNL     1      45.697  81.949  40.675  0.00  0.00    +0.007 C 
ATOM      9  C   UNL     1      44.339  81.656  40.042  0.00  0.00    +0.022 C 
ATOM     10  C   UNL     1      44.144  80.230  39.749  0.00  0.00    -0.039 C 
ATOM     11  C   UNL     1      43.269  79.929  38.827  0.00  0.00    +0.029 C 
ATOM     12  C   UNL     1      43.022  78.541  38.481  0.00  0.00    +0.173 C 
ATOM     13  O   UNL     1      41.892  78.133  38.129  0.00  0.00    -0.291 OA
ATOM     14  C   UNL     1      44.224  77.650  38.581  0.00  0.00    +0.070 C 
ATOM     15  C   UNL     1      44.755  77.801  39.961  0.00  0.00    +0.014 C 
ATOM     16  C   UNL     1      44.894  79.198  40.479  0.00  0.00    +0.046 C 
ATOM     17  C   UNL     1      46.391  79.548  40.555  0.00  0.00    +0.164 C 
ATOM     18  C   UNL     1      47.020  79.144  41.830  0.00  0.00    +0.182 C 
ATOM     19  C   UNL     1      47.817  80.227  42.514  0.00  0.00    +0.038 C 
ATOM     20  C   UNL     1      48.766  80.871  41.538  0.00  0.00    +0.034 C 
ATOM     21  C   UNL     1      49.290  82.122  42.186  0.00  0.00    +0.172 C 
ATOM     22  O   UNL     1      48.221  82.797  42.829  0.00  0.00    -0.330 OA
ATOM     23  C   UNL     1      49.891  79.906  41.270  0.00  0.00    +0.003 C 
ATOM     24  O   UNL     1      47.860  78.034  41.768  0.00  0.00    -0.220 OA
ATOM     25  F   UNL     1      46.992  78.765  39.549  0.00  0.00    -0.237 F 
ATOM     26  C   UNL     1      44.287  79.162  41.875  0.00  0.00    +0.007 C 
ATOM     27  C   UNL     1      47.151  84.931  42.390  0.00  0.00    +0.061 C 
ENDROOT
BRANCH  21  28
ATOM     28  C   UNL     1      50.340  81.934  43.188  0.00  0.00    +0.193 C 
ATOM     29  O   UNL     1      50.352  82.785  44.110  0.00  0.00    -0.292 OA
BRANCH  28  30
ATOM     30  C   UNL     1      51.378  80.913  43.275  0.00  0.00    +0.161 C 
ATOM     31 CL   UNL     1      52.668  81.324  42.072  0.00  0.00    -0.105 Cl
ENDBRANCH  28  30
ENDBRANCH  21  28
TORSDOF 2
