REMARK  Name = Halopredone_acetate
REMARK  6 active torsions:
REMARK  status: ('A' for Active; 'I' for Inactive)
REMARK    1  A    between atoms: C_2  and  O_4
REMARK    2  A    between atoms: O_4  and  C_5
REMARK    3  A    between atoms: C_5  and  C_6
REMARK    4  A    between atoms: C_6  and  C_8
REMARK    5  A    between atoms: C_8  and  O_32
REMARK    6  A    between atoms: O_32  and  C_33
REMARK                            x       y       z     vdW  Elec       q    Type
REMARK                         _______ _______ _______ _____ _____    ______ ____
ROOT
ATOM      1  C   UNL     1      50.102  82.476  43.245  0.00  0.00    +0.190 C 
ATOM      2  C   UNL     1      50.831  83.139  42.116  0.00  0.00    +0.048 C 
ATOM      3  C   UNL     1      49.913  83.066  40.883  0.00  0.00    +0.004 C 
ATOM      4  C   UNL     1      48.649  82.556  41.501  0.00  0.00    +0.007 C 
ATOM      5  C   UNL     1      49.246  81.496  42.422  0.00  0.00    +0.043 C 
ATOM      6  C   UNL     1      48.147  80.891  43.166  0.00  0.00    +0.039 C 
ATOM      7  C   UNL     1      47.168  80.236  42.270  0.00  0.00    +0.182 C 
ATOM      8  C   UNL     1      47.067  80.702  40.888  0.00  0.00    +0.168 C 
ATOM      9  C   UNL     1      47.563  82.104  40.625  0.00  0.00    +0.036 C 
ATOM     10  C   UNL     1      47.812  82.202  39.135  0.00  0.00    +0.042 C 
ATOM     11  C   UNL     1      46.432  82.165  38.479  0.00  0.00    +0.180 C 
ATOM     12  C   UNL     1      45.670  80.981  39.004  0.00  0.00    -0.003 C 
ATOM     13  C   UNL     1      45.106  80.207  38.130  0.00  0.00    +0.037 C 
ATOM     14  C   UNL     1      44.340  79.015  38.490  0.00  0.00    +0.201 C 
ATOM     15  O   UNL     1      43.790  78.262  37.653  0.00  0.00    -0.286 OA
ATOM     16  C   UNL     1      44.262  78.762  39.922  0.00  0.00    +0.070 C 
ATOM     17  C   UNL     1      44.833  79.552  40.799  0.00  0.00    -0.010 C 
ATOM     18  C   UNL     1      45.575  80.728  40.449  0.00  0.00    +0.067 C 
ATOM     19  C   UNL     1      44.911  81.926  41.155  0.00  0.00    +0.011 C 
ATOM     20 BR   UNL     1      43.293  77.221  40.575  0.00  0.00    -0.046 Br
ATOM     21  F   UNL     1      46.529  82.159  37.123  0.00  0.00    -0.233 F 
ATOM     22  F   UNL     1      47.583  79.774  39.971  0.00  0.00    -0.237 F 
ATOM     23  O   UNL     1      47.433  78.854  42.258  0.00  0.00    -0.220 OA
ATOM     24  C   UNL     1      50.197  80.596  41.724  0.00  0.00    +0.004 C 
ENDROOT
BRANCH   1  25
ATOM     25  C   UNL     1      50.874  81.886  44.306  0.00  0.00    +0.230 C 
ATOM     26  O   UNL     1      52.119  81.871  44.148  0.00  0.00    -0.288 OA
BRANCH  25  27
ATOM     27  C   UNL     1      50.429  81.284  45.576  0.00  0.00    +0.276 C 
BRANCH  27  28
ATOM     28  O   UNL     1      51.501  80.542  46.188  0.00  0.00    -0.440 OA
BRANCH  28  30
ATOM     29  C   UNL     1      52.529  79.261  48.098  0.00  0.00    +0.121 C 
ATOM     30  C   UNL     1      51.375  79.976  47.449  0.00  0.00    +0.318 C 
ATOM     31  O   UNL     1      50.266  80.078  48.035  0.00  0.00    -0.250 OA
ENDBRANCH  28  30
ENDBRANCH  27  28
ENDBRANCH  25  27
ENDBRANCH   1  25
BRANCH   1  32
ATOM     32  O   UNL     1      49.227  83.482  43.793  0.00  0.00    -0.448 OA
BRANCH  32  33
ATOM     33  C   UNL     1      49.759  84.367  44.702  0.00  0.00    +0.318 C 
ATOM     34  O   UNL     1      50.967  84.438  45.007  0.00  0.00    -0.250 OA
ATOM     35  C   UNL     1      48.884  85.361  45.431  0.00  0.00    +0.121 C 
ENDBRANCH  32  33
ENDBRANCH   1  32
TORSDOF 6
