REMARK  Name = Halometasone
REMARK  2 active torsions:
REMARK  status: ('A' for Active; 'I' for Inactive)
REMARK    1  A    between atoms: C_19  and  C_20
REMARK    2  A    between atoms: C_20  and  C_22
REMARK                            x       y       z     vdW  Elec       q    Type
REMARK                         _______ _______ _______ _____ _____    ______ ____
ROOT
ATOM      1  C   UNL     1      48.970  84.264  45.394  0.00  0.00    +0.003 C 
ATOM      2  C   UNL     1      48.931  83.275  44.253  0.00  0.00    +0.035 C 
ATOM      3  C   UNL     1      47.967  83.724  43.162  0.00  0.00    +0.003 C 
ATOM      4  C   UNL     1      48.619  83.316  41.845  0.00  0.00    +0.006 C 
ATOM      5  C   UNL     1      47.673  82.694  40.896  0.00  0.00    +0.036 C 
ATOM      6  C   UNL     1      48.320  82.673  39.513  0.00  0.00    +0.042 C 
ATOM      7  C   UNL     1      47.258  82.383  38.485  0.00  0.00    +0.180 C 
ATOM      8  C   UNL     1      46.300  81.385  39.041  0.00  0.00    -0.003 C 
ATOM      9  C   UNL     1      45.097  81.409  38.519  0.00  0.00    +0.037 C 
ATOM     10  C   UNL     1      44.106  80.478  38.993  0.00  0.00    +0.205 C 
ATOM     11  O   UNL     1      42.953  80.505  38.490  0.00  0.00    -0.286 OA
ATOM     12  C   UNL     1      44.455  79.542  40.028  0.00  0.00    +0.093 C 
ATOM     13  C   UNL     1      45.673  79.536  40.539  0.00  0.00    -0.006 C 
ATOM     14  C   UNL     1      46.763  80.467  40.109  0.00  0.00    +0.067 C 
ATOM     15  C   UNL     1      47.166  81.344  41.302  0.00  0.00    +0.168 C 
ATOM     16  C   UNL     1      47.942  80.658  42.349  0.00  0.00    +0.182 C 
ATOM     17  C   UNL     1      49.365  81.046  42.568  0.00  0.00    +0.038 C 
ATOM     18  C   UNL     1      49.767  82.433  42.264  0.00  0.00    +0.035 C 
ATOM     19  C   UNL     1      50.232  83.238  43.480  0.00  0.00    +0.180 C 
ATOM     20  O   UNL     1      50.480  84.534  43.024  0.00  0.00    -0.218 OA
ATOM     21  C   UNL     1      50.939  82.486  41.289  0.00  0.00    +0.003 C 
ATOM     22  O   UNL     1      47.982  79.257  42.118  0.00  0.00    -0.220 OA
ATOM     23  F   UNL     1      45.887  81.601  41.858  0.00  0.00    -0.237 F 
ATOM     24  C   UNL     1      47.872  79.640  39.566  0.00  0.00    +0.011 C 
ATOM     25 CL   UNL     1      43.241  78.399  40.610  0.00  0.00    -0.079 Cl
ATOM     26  F   UNL     1      47.787  81.999  37.287  0.00  0.00    -0.233 F 
ENDROOT
BRANCH  19  27
ATOM     27  C   UNL     1      51.380  82.725  44.183  0.00  0.00    +0.211 C 
ATOM     28  O   UNL     1      52.564  83.042  43.987  0.00  0.00    -0.291 OA
BRANCH  27  29
ATOM     29  C   UNL     1      51.209  81.714  45.263  0.00  0.00    +0.248 C 
ATOM     30  O   UNL     1      52.070  81.907  46.334  0.00  0.00    -0.212 OA
ENDBRANCH  27  29
ENDBRANCH  19  27
TORSDOF 2
