REMARK  Name = Haloperidol
REMARK  6 active torsions:
REMARK  status: ('A' for Active; 'I' for Inactive)
REMARK    1  A    between atoms: N_3  and  C_15
REMARK    2  A    between atoms: C_6  and  C_7
REMARK    3  A    between atoms: C_15  and  C_16
REMARK    4  A    between atoms: C_16  and  C_17
REMARK    5  A    between atoms: C_17  and  C_18
REMARK    6  A    between atoms: C_18  and  C_20
REMARK                            x       y       z     vdW  Elec       q    Type
REMARK                         _______ _______ _______ _____ _____    ______ ____
ROOT
ATOM      1  C   UNL     1      47.842  80.870  42.209  0.00  0.00    +0.052 C 
ATOM      2  C   UNL     1      47.090  79.976  41.246  0.00  0.00    +0.075 C 
ATOM      3  N   UNL     1      46.517  80.663  40.137  0.00  0.00    -0.272 NA
ATOM      4  C   UNL     1      46.642  82.081  40.293  0.00  0.00    +0.075 C 
ATOM      5  C   UNL     1      48.122  82.395  40.301  0.00  0.00    +0.052 C 
ATOM      6  C   UNL     1      48.839  81.672  41.416  0.00  0.00    +0.148 C 
ATOM      7  O   UNL     1      49.772  80.815  40.825  0.00  0.00    -0.221 OA
ENDROOT
BRANCH   6   8
ATOM      8  C   UNL     1      49.506  82.705  42.248  0.00  0.00    +0.005 A 
ATOM      9  C   UNL     1      50.868  82.850  42.213  0.00  0.00    -0.001 A 
ATOM     10  C   UNL     1      51.521  83.815  42.988  0.00  0.00    +0.011 A 
ATOM     11  C   UNL     1      50.773  84.645  43.812  0.00  0.00    +0.058 A 
ATOM     12  C   UNL     1      49.412  84.508  43.853  0.00  0.00    +0.011 A 
ATOM     13  C   UNL     1      48.797  83.553  43.082  0.00  0.00    -0.001 A 
ATOM     14 CL   UNL     1      51.631  85.855  44.779  0.00  0.00    -0.082 Cl
ENDBRANCH   6   8
BRANCH   3  15
ATOM     15  C   UNL     1      45.153  80.251  39.892  0.00  0.00    +0.073 C 
BRANCH  15  16
ATOM     16  C   UNL     1      44.924  78.801  40.113  0.00  0.00    +0.025 C 
BRANCH  16  17
ATOM     17  C   UNL     1      43.459  78.477  40.126  0.00  0.00    +0.071 C 
BRANCH  17  18
ATOM     18  C   UNL     1      42.878  78.736  38.804  0.00  0.00    +0.173 C 
ATOM     19  O   UNL     1      43.243  79.694  38.078  0.00  0.00    -0.291 OA
BRANCH  18  20
ATOM     20  C   UNL     1      41.838  77.856  38.303  0.00  0.00    +0.035 A 
ATOM     21  C   UNL     1      41.714  76.594  38.823  0.00  0.00    +0.005 A 
ATOM     22  C   UNL     1      40.728  75.753  38.358  0.00  0.00    +0.030 A 
ATOM     23  C   UNL     1      39.872  76.209  37.358  0.00  0.00    +0.140 A 
ATOM     24  C   UNL     1      39.992  77.477  36.831  0.00  0.00    +0.030 A 
ATOM     25  C   UNL     1      40.996  78.313  37.316  0.00  0.00    +0.005 A 
ATOM     26  F   UNL     1      38.914  75.359  36.921  0.00  0.00    -0.204 F 
ENDBRANCH  18  20
ENDBRANCH  17  18
ENDBRANCH  16  17
ENDBRANCH  15  16
ENDBRANCH   3  15
TORSDOF 6
