REMARK  Name = Halobetasol_Propionate
REMARK  5 active torsions:
REMARK  status: ('A' for Active; 'I' for Inactive)
REMARK    1  A    between atoms: C_2  and  C_3
REMARK    2  A    between atoms: C_3  and  O_5
REMARK    3  A    between atoms: O_5  and  C_6
REMARK    4  A    between atoms: C_6  and  C_30
REMARK    5  A    between atoms: C_30  and  C_32
REMARK                            x       y       z     vdW  Elec       q    Type
REMARK                         _______ _______ _______ _____ _____    ______ ____
ROOT
ATOM      1  C   UNL     1      48.567  81.542  41.709  0.00  0.00    +0.187 C 
ATOM      2  C   UNL     1      48.470  80.568  42.928  0.00  0.00    +0.044 C 
ATOM      3  C   UNL     1      46.974  80.476  43.164  0.00  0.00    +0.004 C 
ATOM      4  C   UNL     1      46.573  80.325  41.710  0.00  0.00    +0.007 C 
ATOM      5  C   UNL     1      47.165  81.618  41.178  0.00  0.00    +0.043 C 
ATOM      6  C   UNL     1      46.968  81.582  39.723  0.00  0.00    +0.039 C 
ATOM      7  C   UNL     1      45.514  81.426  39.376  0.00  0.00    +0.182 C 
ATOM      8  C   UNL     1      44.791  80.317  40.033  0.00  0.00    +0.168 C 
ATOM      9  C   UNL     1      45.157  80.092  41.460  0.00  0.00    +0.036 C 
ATOM     10  C   UNL     1      44.715  78.819  42.082  0.00  0.00    +0.042 C 
ATOM     11  C   UNL     1      45.029  77.602  41.235  0.00  0.00    +0.180 C 
ATOM     12  C   UNL     1      44.242  77.916  39.975  0.00  0.00    -0.003 C 
ATOM     13  C   UNL     1      43.255  77.154  39.677  0.00  0.00    +0.036 C 
ATOM     14  C   UNL     1      42.432  77.374  38.494  0.00  0.00    +0.195 C 
ATOM     15  O   UNL     1      41.470  76.619  38.217  0.00  0.00    -0.287 OA
ATOM     16  C   UNL     1      42.806  78.527  37.663  0.00  0.00    +0.038 C 
ATOM     17  C   UNL     1      43.824  79.257  38.024  0.00  0.00    -0.017 C 
ATOM     18  C   UNL     1      44.684  79.067  39.200  0.00  0.00    +0.066 C 
ATOM     19  C   UNL     1      46.023  78.647  38.588  0.00  0.00    +0.011 C 
ATOM     20  F   UNL     1      44.471  76.513  41.864  0.00  0.00    -0.233 F 
ATOM     21  F   UNL     1      43.446  80.766  40.087  0.00  0.00    -0.237 F 
ATOM     22  O   UNL     1      44.892  82.661  39.561  0.00  0.00    -0.220 OA
ATOM     23  C   UNL     1      46.522  82.832  41.780  0.00  0.00    +0.004 C 
ATOM     24  C   UNL     1      49.237  81.032  44.099  0.00  0.00    +0.004 C 
ENDROOT
BRANCH   1  25
ATOM     25  C   UNL     1      49.562  80.902  40.852  0.00  0.00    +0.203 C 
ATOM     26  O   UNL     1      49.192  80.295  39.869  0.00  0.00    -0.291 OA
BRANCH  25  27
ATOM     27  C   UNL     1      51.006  80.956  41.130  0.00  0.00    +0.163 C 
ATOM     28 CL   UNL     1      51.747  82.411  40.343  0.00  0.00    -0.105 Cl
ENDBRANCH  25  27
ENDBRANCH   1  25
BRANCH   1  29
ATOM     29  O   UNL     1      48.993  82.732  42.337  0.00  0.00    -0.449 OA
BRANCH  29  30
ATOM     30  C   UNL     1      48.643  84.011  42.081  0.00  0.00    +0.317 C 
ATOM     31  O   UNL     1      48.300  84.334  40.923  0.00  0.00    -0.250 OA
BRANCH  30  33
ATOM     32  C   UNL     1      47.748  86.184  42.835  0.00  0.00    +0.012 C 
ATOM     33  C   UNL     1      48.669  85.039  43.194  0.00  0.00    +0.110 C 
ENDBRANCH  30  33
ENDBRANCH  29  30
ENDBRANCH   1  29
TORSDOF 5
