REMARK  Name = Heptabarbital
REMARK  2 active torsions:
REMARK  status: ('A' for Active; 'I' for Inactive)
REMARK    1  A    between atoms: C_2  and  C_3
REMARK    2  A    between atoms: C_3  and  C_12
REMARK                            x       y       z     vdW  Elec       q    Type
REMARK                         _______ _______ _______ _____ _____    ______ ____
ROOT
ATOM      1  C   UNL     1      47.657  82.394  40.892  0.00  0.00    +0.156 C 
ATOM      2  C   UNL     1      47.094  80.977  40.988  0.00  0.00    +0.260 C 
ATOM      3  O   UNL     1      47.664  80.108  41.687  0.00  0.00    -0.272 OA
ATOM      4  N   UNL     1      45.911  80.726  40.245  0.00  0.00    -0.125 NA
ATOM      5  C   UNL     1      45.572  81.459  39.074  0.00  0.00    +0.352 C 
ATOM      6  O   UNL     1      44.513  81.198  38.454  0.00  0.00    -0.248 OA
ATOM      7  N   UNL     1      46.496  82.469  38.688  0.00  0.00    -0.125 NA
ATOM      8  C   UNL     1      47.679  82.709  39.443  0.00  0.00    +0.260 C 
ATOM      9  O   UNL     1      48.660  83.174  38.821  0.00  0.00    -0.272 OA
ENDROOT
BRANCH   1  10
ATOM     10  C   UNL     1      48.978  82.413  41.533  0.00  0.00    -0.033 C 
ATOM     11  C   UNL     1      49.481  81.313  42.059  0.00  0.00    -0.034 C 
ATOM     12  C   UNL     1      50.796  81.084  42.763  0.00  0.00    +0.025 C 
ATOM     13  C   UNL     1      51.752  82.181  42.362  0.00  0.00    +0.005 C 
ATOM     14  C   UNL     1      51.539  83.450  43.147  0.00  0.00    +0.001 C 
ATOM     15  C   UNL     1      50.243  84.134  42.812  0.00  0.00    +0.004 C 
ATOM     16  C   UNL     1      49.675  83.738  41.489  0.00  0.00    +0.023 C 
ENDBRANCH   1  10
BRANCH   1  18
ATOM     17  C   UNL     1      46.738  83.345  43.005  0.00  0.00    +0.001 C 
ATOM     18  C   UNL     1      46.609  83.254  41.510  0.00  0.00    +0.021 C 
ENDBRANCH   1  18
TORSDOF 2
