REMARK  Name = Herbimycin_A
REMARK  6 active torsions:
REMARK  status: ('A' for Active; 'I' for Inactive)
REMARK    1  A    between atoms: C_4  and  O_40
REMARK    2  A    between atoms: C_5  and  O_38
REMARK    3  A    between atoms: C_9  and  O_32
REMARK    4  A    between atoms: C_10  and  O_30
REMARK    5  A    between atoms: C_24  and  O_25
REMARK    6  A    between atoms: O_32  and  C_33
REMARK                            x       y       z     vdW  Elec       q    Type
REMARK                         _______ _______ _______ _____ _____    ______ ____
ROOT
ATOM      1  C   UNL     1      44.681  75.670  39.641  0.00  0.00    +0.003 C 
ATOM      2  C   UNL     1      44.630  76.169  41.064  0.00  0.00    +0.034 C 
ATOM      3  C   UNL     1      45.936  76.661  41.567  0.00  0.00    +0.035 C 
ATOM      4  C   UNL     1      46.642  75.744  42.537  0.00  0.00    +0.143 C 
ATOM      5  C   UNL     1      48.114  75.904  42.349  0.00  0.00    +0.146 C 
ATOM      6  C   UNL     1      48.808  76.925  43.158  0.00  0.00    +0.051 C 
ATOM      7  C   UNL     1      48.028  78.031  43.702  0.00  0.00    -0.029 C 
ATOM      8  C   UNL     1      48.105  79.316  43.401  0.00  0.00    -0.006 C 
ATOM      9  C   UNL     1      49.030  79.926  42.413  0.00  0.00    +0.220 C 
ATOM     10  C   UNL     1      48.187  80.745  41.435  0.00  0.00    +0.181 C 
ATOM     11  C   UNL     1      47.675  79.895  40.342  0.00  0.00    +0.007 C 
ATOM     12  C   UNL     1      47.361  80.233  39.105  0.00  0.00    -0.002 C 
ATOM     13  C   UNL     1      47.416  81.504  38.448  0.00  0.00    +0.000 C 
ATOM     14  C   UNL     1      46.592  82.532  38.423  0.00  0.00    +0.033 C 
ATOM     15  C   UNL     1      45.311  82.675  39.092  0.00  0.00    +0.265 C 
ATOM     16  O   UNL     1      45.243  83.722  39.862  0.00  0.00    -0.268 OA
ATOM     17  N   UNL     1      44.142  81.899  39.058  0.00  0.00    -0.172 NA
ATOM     18  C   UNL     1      43.784  80.530  39.261  0.00  0.00    +0.115 C 
ATOM     19  C   UNL     1      43.074  80.094  38.182  0.00  0.00    +0.062 C 
ATOM     20  C   UNL     1      42.509  78.767  38.051  0.00  0.00    +0.197 C 
ATOM     21  O   UNL     1      41.862  78.408  37.032  0.00  0.00    -0.287 OA
ATOM     22  C   UNL     1      42.748  77.899  39.177  0.00  0.00    +0.043 C 
ATOM     23  C   UNL     1      43.443  78.262  40.291  0.00  0.00    +0.048 C 
ATOM     24  C   UNL     1      43.462  77.120  41.254  0.00  0.00    +0.141 C 
ATOM     25  C   UNL     1      43.993  79.602  40.372  0.00  0.00    +0.209 C 
ATOM     26  O   UNL     1      44.691  79.990  41.453  0.00  0.00    -0.285 OA
ATOM     27  C   UNL     1      47.141  83.733  37.611  0.00  0.00    +0.036 C 
ATOM     28  C   UNL     1      47.194  80.269  44.128  0.00  0.00    +0.030 C 
ATOM     29  C   UNL     1      49.453  76.209  44.365  0.00  0.00    +0.007 C 
ENDROOT
BRANCH  24  30
ATOM     30  O   UNL     1      42.353  76.242  41.008  0.00  0.00    -0.349 OA
ATOM     31  C   UNL     1      42.612  75.364  39.986  0.00  0.00    +0.174 C 
ENDBRANCH  24  30
BRANCH  10  32
ATOM     32  O   UNL     1      47.325  81.588  42.034  0.00  0.00    -0.345 OA
ATOM     33  C   UNL     1      47.720  82.236  43.161  0.00  0.00    +0.175 C 
ENDBRANCH  10  32
BRANCH   5  34
ATOM     34  O   UNL     1      48.395  76.148  40.984  0.00  0.00    -0.351 OA
ATOM     35  C   UNL     1      49.596  75.601  40.581  0.00  0.00    +0.174 C 
ENDBRANCH   5  34
BRANCH   4  36
ATOM     36  O   UNL     1      46.218  75.832  43.832  0.00  0.00    -0.351 OA
ATOM     37  C   UNL     1      46.206  74.630  44.522  0.00  0.00    +0.174 C 
ENDBRANCH   4  36
BRANCH   9  38
ATOM     38  O   UNL     1      49.965  80.775  43.071  0.00  0.00    -0.429 OA
BRANCH  38  39
ATOM     39  C   UNL     1      50.735  81.703  42.431  0.00  0.00    +0.441 C 
ATOM     40  O   UNL     1      50.396  82.927  42.587  0.00  0.00    -0.223 OA
ATOM     41  N   UNL     1      51.858  81.412  41.625  0.00  0.00    -0.048 NA
ENDBRANCH  38  39
ENDBRANCH   9  38
TORSDOF 6
