REMARK  Name = Heroin_diacetylmorphine
REMARK  4 active torsions:
REMARK  status: ('A' for Active; 'I' for Inactive)
REMARK    1  A    between atoms: C_2  and  O_4
REMARK    2  A    between atoms: O_4  and  C_5
REMARK    3  A    between atoms: C_17  and  O_20
REMARK    4  A    between atoms: O_20  and  C_21
REMARK                            x       y       z     vdW  Elec       q    Type
REMARK                         _______ _______ _______ _____ _____    ______ ____
ROOT
ATOM      1  C   UNL     1      45.105  77.780  42.015  0.00  0.00    +0.230 C 
ATOM      2  C   UNL     1      43.723  77.966  41.421  0.00  0.00    +0.016 C 
ATOM      3  C   UNL     1      43.333  79.052  40.760  0.00  0.00    -0.026 C 
ATOM      4  C   UNL     1      44.196  80.223  40.519  0.00  0.00    +0.044 C 
ATOM      5  C   UNL     1      44.105  80.868  39.183  0.00  0.00    +0.066 C 
ATOM      6  C   UNL     1      45.168  81.862  38.914  0.00  0.00    +0.042 C 
ATOM      7  C   UNL     1      46.408  81.734  39.704  0.00  0.00    -0.022 A 
ATOM      8  C   UNL     1      46.556  80.642  40.466  0.00  0.00    +0.014 A 
ATOM      9  C   UNL     1      45.586  79.569  40.490  0.00  0.00    +0.069 C 
ATOM     10  C   UNL     1      45.818  79.026  41.875  0.00  0.00    +0.214 C 
ATOM     11  O   UNL     1      47.242  79.045  41.890  0.00  0.00    -0.472 OA
ATOM     12  C   UNL     1      47.565  80.294  41.315  0.00  0.00    +0.169 A 
ATOM     13  C   UNL     1      48.590  81.235  41.375  0.00  0.00    +0.182 A 
ATOM     14  C   UNL     1      48.532  82.408  40.616  0.00  0.00    +0.040 A 
ATOM     15  C   UNL     1      47.438  82.651  39.783  0.00  0.00    -0.001 A 
ATOM     16  C   UNL     1      45.717  78.624  39.379  0.00  0.00    +0.025 C 
ATOM     17  C   UNL     1      44.649  78.675  38.332  0.00  0.00    +0.073 C 
ATOM     18  N   UNL     1      44.062  79.934  38.088  0.00  0.00    -0.272 NA
ATOM     19  C   UNL     1      42.728  79.755  37.547  0.00  0.00    +0.090 C 
ENDROOT
BRANCH   1  20
ATOM     20  O   UNL     1      44.852  77.463  43.392  0.00  0.00    -0.444 OA
BRANCH  20  22
ATOM     21  C   UNL     1      45.789  76.281  45.412  0.00  0.00    +0.121 C 
ATOM     22  C   UNL     1      45.339  76.331  43.998  0.00  0.00    +0.318 C 
ATOM     23  O   UNL     1      45.412  75.274  43.327  0.00  0.00    -0.250 OA
ENDBRANCH  20  22
ENDBRANCH   1  20
BRANCH  13  24
ATOM     24  O   UNL     1      49.643  80.928  42.224  0.00  0.00    -0.421 OA
BRANCH  24  25
ATOM     25  C   UNL     1      49.767  81.415  43.510  0.00  0.00    +0.322 C 
ATOM     26  O   UNL     1      48.879  82.218  43.905  0.00  0.00    -0.250 OA
ATOM     27  C   UNL     1      50.912  81.007  44.399  0.00  0.00    +0.122 C 
ENDBRANCH  24  25
ENDBRANCH  13  24
TORSDOF 4
