REMARK  Name = Hesperidin
REMARK  7 active torsions:
REMARK  status: ('A' for Active; 'I' for Inactive)
REMARK    1  A    between atoms: C_6  and  O_8
REMARK    2  A    between atoms: O_8  and  C_9
REMARK    3  A    between atoms: C_9  and  C_10
REMARK    4  A    between atoms: C_14  and  O_16
REMARK    5  A    between atoms: O_16  and  C_17
REMARK    6  A    between atoms: C_24  and  C_28
REMARK    7  A    between atoms: C_31  and  O_34
REMARK                            x       y       z     vdW  Elec       q    Type
REMARK                         _______ _______ _______ _____ _____    ______ ____
ROOT
ATOM      1  O   UNL     1      45.133  77.400  41.301  0.00  0.00    -0.450 OA
ENDROOT
BRANCH   1   2
ATOM      2  C   UNL     1      45.449  78.647  40.808  0.00  0.00    +0.148 A 
ATOM      3  C   UNL     1      45.590  78.965  39.477  0.00  0.00    +0.079 A 
ATOM      4  C   UNL     1      45.910  80.251  39.110  0.00  0.00    +0.204 A 
ATOM      5  C   UNL     1      46.102  81.268  40.007  0.00  0.00    +0.108 A 
ATOM      6  C   UNL     1      46.439  82.629  39.612  0.00  0.00    +0.183 C 
ATOM      7  O   UNL     1      46.821  82.837  38.431  0.00  0.00    -0.291 OA
ATOM      8  C   UNL     1      46.313  83.701  40.630  0.00  0.00    +0.117 C 
ATOM      9  C   UNL     1      46.859  83.195  41.931  0.00  0.00    +0.196 C 
ATOM     10  O   UNL     1      46.160  81.998  42.252  0.00  0.00    -0.474 OA
ATOM     11  C   UNL     1      45.964  80.964  41.353  0.00  0.00    +0.148 A 
ATOM     12  C   UNL     1      45.645  79.685  41.738  0.00  0.00    +0.074 A 
ATOM     13  O   UNL     1      46.046  80.538  37.741  0.00  0.00    -0.286 OA
BRANCH   9  14
ATOM     14  C   UNL     1      48.310  82.979  41.852  0.00  0.00    +0.021 A 
ATOM     15  C   UNL     1      49.111  83.262  42.966  0.00  0.00    +0.044 A 
ATOM     16  C   UNL     1      50.477  83.081  42.952  0.00  0.00    +0.229 A 
ATOM     17  C   UNL     1      51.106  82.608  41.828  0.00  0.00    +0.177 A 
ATOM     18  C   UNL     1      50.322  82.322  40.715  0.00  0.00    +0.040 A 
ATOM     19  C   UNL     1      48.968  82.506  40.736  0.00  0.00    +0.003 A 
ATOM     20  O   UNL     1      51.231  83.376  44.080  0.00  0.00    -0.283 OA
BRANCH  17  21
ATOM     21  O   UNL     1      52.486  82.415  41.783  0.00  0.00    -0.468 OA
ATOM     22  C   UNL     1      53.196  82.760  40.613  0.00  0.00    +0.253 C 
ENDBRANCH  17  21
ENDBRANCH   9  14
ENDBRANCH   1   2
BRANCH   1  27
ATOM     23  C   UNL     1      42.293  76.330  39.594  0.00  0.00    +0.181 C 
ATOM     24  C   UNL     1      41.961  75.008  40.164  0.00  0.00    +0.214 C 
ATOM     25  C   UNL     1      43.267  74.331  40.663  0.00  0.00    +0.221 C 
ATOM     26  C   UNL     1      43.911  75.329  41.596  0.00  0.00    +0.254 C 
ATOM     27  C   UNL     1      44.224  76.553  40.717  0.00  0.00    +0.322 C 
ATOM     28  O   UNL     1      42.945  77.156  40.562  0.00  0.00    -0.316 OA
ATOM     29  O   UNL     1      43.024  75.779  42.575  0.00  0.00    -0.213 OA
ATOM     30  O   UNL     1      42.938  73.145  41.309  0.00  0.00    -0.217 OA
ATOM     31  O   UNL     1      41.151  75.037  41.289  0.00  0.00    -0.218 OA
BRANCH  23  32
ATOM     32  C   UNL     1      41.173  77.112  39.043  0.00  0.00    +0.177 C 
BRANCH  32  33
ATOM     33  O   UNL     1      40.708  76.922  37.812  0.00  0.00    -0.326 OA
BRANCH  33  39
ATOM     34  C   UNL     1      36.866  75.506  38.989  0.00  0.00    +0.035 C 
ATOM     35  C   UNL     1      38.024  74.766  38.292  0.00  0.00    +0.151 C 
ATOM     36  C   UNL     1      37.693  74.418  36.893  0.00  0.00    +0.212 C 
ATOM     37  C   UNL     1      38.769  74.559  35.885  0.00  0.00    +0.220 C 
ATOM     38  C   UNL     1      40.058  75.084  36.437  0.00  0.00    +0.241 C 
ATOM     39  C   UNL     1      39.646  76.154  37.497  0.00  0.00    +0.269 C 
ATOM     40  O   UNL     1      39.209  75.362  38.564  0.00  0.00    -0.328 OA
ATOM     41  O   UNL     1      40.801  74.093  37.052  0.00  0.00    -0.215 OA
ATOM     42  O   UNL     1      38.996  73.332  35.253  0.00  0.00    -0.217 OA
ATOM     43  O   UNL     1      36.618  75.255  36.507  0.00  0.00    -0.218 OA
ENDBRANCH  33  39
ENDBRANCH  32  33
ENDBRANCH  23  32
ENDBRANCH   1  27
TORSDOF 7
