REMARK  Name = Hesperetin
REMARK  2 active torsions:
REMARK  status: ('A' for Active; 'I' for Inactive)
REMARK    1  A    between atoms: O_2  and  C_3
REMARK    2  A    between atoms: C_6  and  C_9
REMARK                            x       y       z     vdW  Elec       q    Type
REMARK                         _______ _______ _______ _____ _____    ______ ____
ROOT
ATOM      1  C   UNL     1      46.452  82.193  41.672  0.00  0.00    +0.196 C 
ATOM      2  C   UNL     1      45.898  82.730  40.397  0.00  0.00    +0.117 C 
ATOM      3  C   UNL     1      45.991  81.710  39.339  0.00  0.00    +0.183 C 
ATOM      4  O   UNL     1      46.425  81.876  38.183  0.00  0.00    -0.291 OA
ATOM      5  C   UNL     1      45.522  80.367  39.699  0.00  0.00    +0.108 A 
ATOM      6  C   UNL     1      45.102  79.436  38.798  0.00  0.00    +0.205 A 
ATOM      7  C   UNL     1      44.664  78.174  39.172  0.00  0.00    +0.084 A 
ATOM      8  C   UNL     1      44.644  77.826  40.506  0.00  0.00    +0.202 A 
ATOM      9  C   UNL     1      45.066  78.759  41.423  0.00  0.00    +0.079 A 
ATOM     10  C   UNL     1      45.507  80.027  41.058  0.00  0.00    +0.148 A 
ATOM     11  O   UNL     1      45.923  80.940  41.990  0.00  0.00    -0.474 OA
ATOM     12  O   UNL     1      44.208  76.558  40.937  0.00  0.00    -0.286 OA
ATOM     13  O   UNL     1      45.132  79.814  37.451  0.00  0.00    -0.286 OA
ENDROOT
BRANCH   1  17
ATOM     14  C   UNL     1      50.654  81.974  41.683  0.00  0.00    +0.177 A 
ATOM     15  C   UNL     1      50.020  82.312  42.850  0.00  0.00    +0.229 A 
ATOM     16  C   UNL     1      48.634  82.395  42.874  0.00  0.00    +0.044 A 
ATOM     17  C   UNL     1      47.922  82.135  41.720  0.00  0.00    +0.021 A 
ATOM     18  C   UNL     1      48.591  81.794  40.551  0.00  0.00    +0.003 A 
ATOM     19  C   UNL     1      49.958  81.708  40.512  0.00  0.00    +0.040 A 
ATOM     20  O   UNL     1      50.745  82.576  44.021  0.00  0.00    -0.283 OA
BRANCH  14  22
ATOM     21  C   UNL     1      52.793  83.078  41.468  0.00  0.00    +0.253 C 
ATOM     22  O   UNL     1      52.054  81.904  41.713  0.00  0.00    -0.468 OA
ENDBRANCH  14  22
ENDBRANCH   1  17
TORSDOF 2
