REMARK  Name = Hetacillin
REMARK  3 active torsions:
REMARK  status: ('A' for Active; 'I' for Inactive)
REMARK    1  A    between atoms: CA_3  and  C_24
REMARK    2  A    between atoms: CA_7  and  N_10
REMARK    3  A    between atoms: CA_13  and  C_18
REMARK                            x       y       z     vdW  Elec       q    Type
REMARK                         _______ _______ _______ _____ _____    ______ ____
ROOT
ATOM      1  N   UNL     1      46.075  80.430  40.532  0.00  0.00    -0.259 N 
ATOM      2  C   UNL     1      44.890  80.400  39.690  0.00  0.00    +0.247 C 
ATOM      3  O   UNL     1      44.105  81.352  39.492  0.00  0.00    -0.273 OA
ATOM      4  CA  UNL     1      44.794  79.052  39.123  0.00  0.00    +0.173 C 
ATOM      5  N   UNL     1      45.582  78.226  39.985  0.00  0.00    -0.191 NA
ATOM      6  C   UNL     1      46.370  79.060  40.850  0.00  0.00    +0.122 C 
ATOM      7  C   UNL     1      47.805  78.729  40.632  0.00  0.00    +0.038 C 
ATOM      8  C   UNL     1      45.928  78.717  42.278  0.00  0.00    +0.038 C 
ENDROOT
BRANCH   1  15
ATOM      9  C   UNL     1      48.358  85.032  42.286  0.00  0.00    +0.013 C 
ATOM     10  C   UNL     1      49.175  83.801  42.663  0.00  0.00    +0.068 C 
ATOM     11  CA  UNL     1      49.703  83.154  41.401  0.00  0.00    +0.189 C 
ATOM     12  N   UNL     1      48.561  82.561  40.778  0.00  0.00    -0.260 N 
ATOM     13  C   UNL     1      47.981  81.580  41.659  0.00  0.00    +0.151 C 
ATOM     14  S   UNL     1      48.063  82.480  43.231  0.00  0.00    -0.118 S 
ATOM     15  CA  UNL     1      46.681  81.654  40.915  0.00  0.00    +0.182 C 
ATOM     16  C   UNL     1      47.525  82.261  39.816  0.00  0.00    +0.247 C 
ATOM     17  O   UNL     1      47.309  82.396  38.598  0.00  0.00    -0.273 OA
ATOM     18  C   UNL     1      50.226  84.130  43.676  0.00  0.00    +0.013 C 
BRANCH  11  19
ATOM     19  C   UNL     1      50.715  82.158  41.741  0.00  0.00    +0.383 C 
ATOM     20  O   UNL     1      50.395  80.914  41.867  0.00  0.00    -0.244 OA
ATOM     21  OXT UNL     1      52.066  82.386  41.963  0.00  0.00    -0.244 OA
ENDBRANCH  11  19
ENDBRANCH   1  15
BRANCH   4  22
ATOM     22  C   UNL     1      43.392  78.584  39.114  0.00  0.00    +0.002 A 
ATOM     23  C   UNL     1      42.966  77.703  40.087  0.00  0.00    -0.002 A 
ATOM     24  C   UNL     1      41.666  77.263  40.085  0.00  0.00    -0.000 A 
ATOM     25  C   UNL     1      40.781  77.687  39.126  0.00  0.00    -0.000 A 
ATOM     26  C   UNL     1      41.223  78.567  38.162  0.00  0.00    -0.000 A 
ATOM     27  C   UNL     1      42.522  79.017  38.150  0.00  0.00    -0.002 A 
ENDBRANCH   4  22
TORSDOF 3
