REMARK  Name = Hexachlorophene
REMARK  2 active torsions:
REMARK  status: ('A' for Active; 'I' for Inactive)
REMARK    1  A    between atoms: C_4  and  C_9
REMARK    2  A    between atoms: C_9  and  C_10
REMARK                            x       y       z     vdW  Elec       q    Type
REMARK                         _______ _______ _______ _____ _____    ______ ____
ROOT
ATOM      1  C   UNL     1      46.243  82.140  41.895  0.00  0.00    +0.061 C 
ENDROOT
BRANCH   1   5
ATOM      2  C   UNL     1      45.207  78.846  39.458  0.00  0.00    +0.027 A 
ATOM      3  C   UNL     1      44.972  80.106  38.946  0.00  0.00    +0.097 A 
ATOM      4  C   UNL     1      45.332  81.170  39.761  0.00  0.00    +0.203 A 
ATOM      5  C   UNL     1      45.893  81.016  41.010  0.00  0.00    +0.033 A 
ATOM      6  C   UNL     1      46.120  79.732  41.507  0.00  0.00    +0.068 A 
ATOM      7  C   UNL     1      45.767  78.673  40.706  0.00  0.00    +0.069 A 
ATOM      8 CL   UNL     1      46.040  77.032  41.298  0.00  0.00    -0.081 Cl
ATOM      9 CL   UNL     1      46.791  79.452  43.123  0.00  0.00    -0.082 Cl
ATOM     10  O   UNL     1      45.086  82.426  39.224  0.00  0.00    -0.286 OA
ATOM     11 CL   UNL     1      44.261  80.347  37.366  0.00  0.00    -0.079 Cl
ENDBRANCH   1   5
BRANCH   1  12
ATOM     12  C   UNL     1      47.683  82.393  42.078  0.00  0.00    +0.033 A 
ATOM     13  C   UNL     1      48.671  81.519  41.719  0.00  0.00    +0.203 A 
ATOM     14  C   UNL     1      50.021  81.754  41.927  0.00  0.00    +0.097 A 
ATOM     15  C   UNL     1      50.429  82.913  42.520  0.00  0.00    +0.027 A 
ATOM     16  C   UNL     1      49.469  83.817  42.897  0.00  0.00    +0.069 A 
ATOM     17  C   UNL     1      48.129  83.576  42.688  0.00  0.00    +0.068 A 
ATOM     18 CL   UNL     1      47.014  84.796  43.255  0.00  0.00    -0.082 Cl
ATOM     19 CL   UNL     1      50.025  85.307  43.663  0.00  0.00    -0.081 Cl
ATOM     20 CL   UNL     1      51.188  80.538  41.413  0.00  0.00    -0.079 Cl
ATOM     21  O   UNL     1      48.360  80.320  41.111  0.00  0.00    -0.286 OA
ENDBRANCH   1  12
TORSDOF 2
