REMARK  Name = Hexobarbital
REMARK  1 active torsions:
REMARK  status: ('A' for Active; 'I' for Inactive)
REMARK    1  A    between atoms: C_2  and  C_12
REMARK                            x       y       z     vdW  Elec       q    Type
REMARK                         _______ _______ _______ _____ _____    ______ ____
ROOT
ATOM      1  C   UNL     1      46.551  78.234  39.279  0.00  0.00    +0.023 C 
ATOM      2  C   UNL     1      45.507  78.919  40.168  0.00  0.00    +0.155 C 
ATOM      3  C   UNL     1      44.407  79.319  39.276  0.00  0.00    +0.260 C 
ATOM      4  O   UNL     1      43.288  78.761  39.217  0.00  0.00    -0.272 OA
ATOM      5  N   UNL     1      44.623  80.423  38.412  0.00  0.00    -0.126 NA
ATOM      6  C   UNL     1      45.591  81.433  38.682  0.00  0.00    +0.336 C 
ATOM      7  O   UNL     1      45.803  82.413  37.944  0.00  0.00    -0.250 OA
ATOM      8  N   UNL     1      46.369  81.304  39.888  0.00  0.00    -0.210 N 
ATOM      9  C   UNL     1      46.108  80.194  40.696  0.00  0.00    +0.244 C 
ATOM     10  O   UNL     1      46.383  80.252  41.920  0.00  0.00    -0.274 OA
ATOM     11  C   UNL     1      47.380  82.293  40.240  0.00  0.00    +0.124 C 
ENDROOT
BRANCH   2  12
ATOM     12  C   UNL     1      45.076  78.038  41.276  0.00  0.00    -0.033 C 
ATOM     13  C   UNL     1      44.179  78.516  42.124  0.00  0.00    -0.034 C 
ATOM     14  C   UNL     1      43.678  77.691  43.287  0.00  0.00    +0.025 C 
ATOM     15  C   UNL     1      44.864  76.955  43.821  0.00  0.00    +0.005 C 
ATOM     16  C   UNL     1      45.630  76.175  42.828  0.00  0.00    +0.005 C 
ATOM     17  C   UNL     1      45.615  76.691  41.433  0.00  0.00    +0.023 C 
ENDBRANCH   2  12
TORSDOF 1
