REMARK  Name = Hexyl_aminolevulinate
REMARK  10 active torsions:
REMARK  status: ('A' for Active; 'I' for Inactive)
REMARK    1  A    between atoms: C_2  and  C_3
REMARK    2  A    between atoms: C_3  and  C_4
REMARK    3  A    between atoms: C_4  and  C_5
REMARK    4  A    between atoms: C_5  and  C_6
REMARK    5  A    between atoms: C_6  and  O_7
REMARK    6  A    between atoms: O_7  and  C_8
REMARK    7  A    between atoms: C_8  and  C_10
REMARK    8  A    between atoms: C_10  and  C_11
REMARK    9  A    between atoms: C_11  and  C_12
REMARK   10  A    between atoms: C_12  and  C_14
REMARK                            x       y       z     vdW  Elec       q    Type
REMARK                         _______ _______ _______ _____ _____    ______ ____
ROOT
ATOM      1  C   UNL     1      46.551  79.354  41.556  0.00  0.00    +0.317 C 
ATOM      2  O   UNL     1      46.873  79.020  42.742  0.00  0.00    -0.250 OA
ENDROOT
BRANCH   1   3
ATOM      3  O   UNL     1      46.694  80.685  41.252  0.00  0.00    -0.448 OA
BRANCH   3   4
ATOM      4  C   UNL     1      47.163  81.678  42.115  0.00  0.00    +0.208 C 
BRANCH   4   5
ATOM      5  C   UNL     1      48.617  81.452  42.519  0.00  0.00    +0.047 C 
BRANCH   5   6
ATOM      6  C   UNL     1      49.053  82.543  43.485  0.00  0.00    +0.004 C 
BRANCH   6   7
ATOM      7  C   UNL     1      48.907  83.911  42.860  0.00  0.00    +0.000 C 
BRANCH   7   9
ATOM      8  C   UNL     1      50.816  84.754  44.155  0.00  0.00    +0.000 C 
ATOM      9  C   UNL     1      49.359  84.998  43.828  0.00  0.00    +0.000 C 
ENDBRANCH   7   9
ENDBRANCH   6   7
ENDBRANCH   5   6
ENDBRANCH   4   5
ENDBRANCH   3   4
ENDBRANCH   1   3
BRANCH   1  10
ATOM     10  C   UNL     1      46.058  78.376  40.576  0.00  0.00    +0.117 C 
BRANCH  10  11
ATOM     11  C   UNL     1      44.631  78.706  40.214  0.00  0.00    +0.078 C 
BRANCH  11  12
ATOM     12  C   UNL     1      44.639  80.078  39.623  0.00  0.00    +0.170 C 
ATOM     13  O   UNL     1      44.333  81.067  40.240  0.00  0.00    -0.294 OA
BRANCH  12  14
ATOM     14  C   UNL     1      45.047  80.243  38.207  0.00  0.00    +0.173 C 
ATOM     15  N   UNL     1      45.099  81.618  37.803  0.00  0.00    -0.123 NA
ENDBRANCH  12  14
ENDBRANCH  11  12
ENDBRANCH  10  11
ENDBRANCH   1  10
TORSDOF 10
REMARK  Name = Hexyl_aminolevulinate
REMARK  10 active torsions:
REMARK  status: ('A' for Active; 'I' for Inactive)
REMARK    1  A    between atoms: C_2  and  C_3
REMARK    2  A    between atoms: C_3  and  C_4
REMARK    3  A    between atoms: C_4  and  C_5
REMARK    4  A    between atoms: C_5  and  C_6
REMARK    5  A    between atoms: C_6  and  O_7
REMARK    6  A    between atoms: O_7  and  C_8
REMARK    7  A    between atoms: C_8  and  C_10
REMARK    8  A    between atoms: C_10  and  C_11
REMARK    9  A    between atoms: C_11  and  C_12
REMARK   10  A    between atoms: C_12  and  C_14
REMARK                            x       y       z     vdW  Elec       q    Type
REMARK                         _______ _______ _______ _____ _____    ______ ____
ROOT
ATOM      1 CL   UNL     1      46.952  81.338  41.055  0.00  0.00    +0.000 Cl
ENDROOT
TORSDOF 0
