REMARK  Name = Hidrosmin
REMARK  10 active torsions:
REMARK  status: ('A' for Active; 'I' for Inactive)
REMARK    1  A    between atoms: C_6  and  O_8
REMARK    2  A    between atoms: O_8  and  C_9
REMARK    3  A    between atoms: C_9  and  C_10
REMARK    4  A    between atoms: C_14  and  O_16
REMARK    5  A    between atoms: O_16  and  C_17
REMARK    6  A    between atoms: C_21  and  O_23
REMARK    7  A    between atoms: O_23  and  C_24
REMARK    8  A    between atoms: C_24  and  C_25
REMARK    9  A    between atoms: C_30  and  C_32
REMARK   10  A    between atoms: C_35  and  O_38
REMARK                            x       y       z     vdW  Elec       q    Type
REMARK                         _______ _______ _______ _____ _____    ______ ____
ROOT
ATOM      1  C   UNL     1      44.500  77.623  40.622  0.00  0.00    +0.147 A 
ATOM      2  C   UNL     1      45.547  78.320  41.169  0.00  0.00    +0.075 A 
ATOM      3  C   UNL     1      45.920  79.587  40.695  0.00  0.00    +0.154 A 
ATOM      4  C   UNL     1      45.191  80.097  39.660  0.00  0.00    +0.108 A 
ATOM      5  C   UNL     1      44.104  79.434  39.054  0.00  0.00    +0.148 A 
ATOM      6  C   UNL     1      43.788  78.209  39.555  0.00  0.00    +0.074 A 
ATOM      7  C   UNL     1      45.559  81.342  39.193  0.00  0.00    +0.205 A 
ATOM      8  O   UNL     1      44.919  81.835  38.254  0.00  0.00    -0.286 OA
ATOM      9  C   UNL     1      46.638  81.986  39.803  0.00  0.00    +0.080 A 
ATOM     10  C   UNL     1      47.336  81.421  40.844  0.00  0.00    +0.149 A 
ATOM     11  O   UNL     1      46.931  80.224  41.245  0.00  0.00    -0.453 OA
ENDROOT
BRANCH  10  12
ATOM     12  C   UNL     1      48.473  82.074  41.503  0.00  0.00    +0.038 A 
ATOM     13  C   UNL     1      49.489  82.630  40.748  0.00  0.00    +0.048 A 
ATOM     14  C   UNL     1      50.574  83.261  41.319  0.00  0.00    +0.229 A 
ATOM     15  C   UNL     1      50.693  83.365  42.688  0.00  0.00    +0.177 A 
ATOM     16  C   UNL     1      49.684  82.813  43.450  0.00  0.00    +0.040 A 
ATOM     17  C   UNL     1      48.583  82.173  42.865  0.00  0.00    +0.006 A 
ATOM     18  O   UNL     1      51.588  83.813  40.514  0.00  0.00    -0.283 OA
BRANCH  15  19
ATOM     19  O   UNL     1      51.790  84.002  43.256  0.00  0.00    -0.468 OA
ATOM     20  C   UNL     1      51.914  84.273  44.618  0.00  0.00    +0.253 C 
ENDBRANCH  15  19
ENDBRANCH  10  12
BRANCH   1  21
ATOM     21  O   UNL     1      44.137  76.394  41.079  0.00  0.00    -0.450 OA
BRANCH  21  26
ATOM     22  C   UNL     1      41.634  74.898  41.384  0.00  0.00    +0.181 C 
ATOM     23  C   UNL     1      42.209  73.555  41.813  0.00  0.00    +0.214 C 
ATOM     24  C   UNL     1      42.957  73.764  43.146  0.00  0.00    +0.221 C 
ATOM     25  C   UNL     1      44.070  74.718  42.814  0.00  0.00    +0.254 C 
ATOM     26  C   UNL     1      43.492  75.985  42.229  0.00  0.00    +0.322 C 
ATOM     27  O   UNL     1      42.137  75.924  42.125  0.00  0.00    -0.316 OA
ATOM     28  O   UNL     1      44.865  74.048  41.853  0.00  0.00    -0.213 OA
ATOM     29  O   UNL     1      43.409  72.541  43.583  0.00  0.00    -0.217 OA
ATOM     30  O   UNL     1      43.082  73.033  40.875  0.00  0.00    -0.218 OA
BRANCH  22  31
ATOM     31  C   UNL     1      41.880  75.024  39.913  0.00  0.00    +0.177 C 
BRANCH  31  32
ATOM     32  O   UNL     1      40.785  75.416  39.178  0.00  0.00    -0.326 OA
BRANCH  32  38
ATOM     33  C   UNL     1      41.206  72.438  36.586  0.00  0.00    +0.035 C 
ATOM     34  C   UNL     1      40.218  72.293  37.712  0.00  0.00    +0.151 C 
ATOM     35  C   UNL     1      38.821  72.482  37.185  0.00  0.00    +0.212 C 
ATOM     36  C   UNL     1      38.003  73.408  38.039  0.00  0.00    +0.220 C 
ATOM     37  C   UNL     1      38.770  74.726  38.154  0.00  0.00    +0.241 C 
ATOM     38  C   UNL     1      40.237  74.478  38.347  0.00  0.00    +0.269 C 
ATOM     39  O   UNL     1      40.488  73.167  38.776  0.00  0.00    -0.328 OA
ATOM     40  O   UNL     1      38.273  75.480  39.225  0.00  0.00    -0.215 OA
ATOM     41  O   UNL     1      37.756  72.871  39.294  0.00  0.00    -0.217 OA
ATOM     42  O   UNL     1      38.806  72.993  35.877  0.00  0.00    -0.218 OA
ENDBRANCH  32  38
ENDBRANCH  31  32
ENDBRANCH  22  31
ENDBRANCH  21  26
ENDBRANCH   1  21
BRANCH   5  43
ATOM     43  O   UNL     1      43.457  80.062  38.017  0.00  0.00    -0.472 OA
BRANCH  43  44
ATOM     44  C   UNL     1      42.706  79.465  37.032  0.00  0.00    +0.241 C 
BRANCH  44  45
ATOM     45  C   UNL     1      41.455  78.766  37.446  0.00  0.00    +0.229 C 
ATOM     46  O   UNL     1      40.390  79.695  37.586  0.00  0.00    -0.216 OA
ENDBRANCH  44  45
ENDBRANCH  43  44
ENDBRANCH   5  43
TORSDOF 10
