REMARK  Name = Histamine_Phosphate
REMARK  2 active torsions:
REMARK  status: ('A' for Active; 'I' for Inactive)
REMARK    1  A    between atoms: C_2  and  C_6
REMARK    2  A    between atoms: C_6  and  C_7
REMARK                            x       y       z     vdW  Elec       q    Type
REMARK                         _______ _______ _______ _____ _____    ______ ____
ROOT
ATOM      1  C   UNL     1      46.943  81.237  40.598  0.00  0.00    +0.115 A 
ATOM      2  C   UNL     1      45.875  81.162  39.739  0.00  0.00    +0.081 A 
ATOM      3  N   UNL     1      45.918  82.181  38.886  0.00  0.00    -0.227 NA
ATOM      4  C   UNL     1      47.012  82.894  39.210  0.00  0.00    +0.199 A 
ATOM      5  N   UNL     1      47.643  82.328  40.251  0.00  0.00    -0.221 NA
ENDROOT
BRANCH   2   6
ATOM      6  C   UNL     1      44.859  80.095  39.791  0.00  0.00    +0.068 C 
BRANCH   6   7
ATOM      7  C   UNL     1      45.469  78.738  40.054  0.00  0.00    +0.116 C 
ATOM      8  N   UNL     1      44.516  77.806  40.560  0.00  0.00    -0.131 NA
ENDBRANCH   6   7
ENDBRANCH   2   6
TORSDOF 2
REMARK  Name = Histamine_Phosphate
REMARK  2 active torsions:
REMARK  status: ('A' for Active; 'I' for Inactive)
REMARK    1  A    between atoms: C_2  and  C_6
REMARK    2  A    between atoms: C_6  and  C_7
REMARK                            x       y       z     vdW  Elec       q    Type
REMARK                         _______ _______ _______ _____ _____    ______ ____
ROOT
ATOM      1  O   UNL     1      46.662  81.660  39.051  0.00  0.00    -0.113 OA
ATOM      2  P   UNL     1      45.193  80.897  39.340  0.00  0.00    +0.559 P 
ATOM      3  O   UNL     1      44.298  81.720  40.226  0.00  0.00    -0.220 OA
ATOM      4  O   UNL     1      45.514  79.430  40.114  0.00  0.00    -0.113 OA
ATOM      5  O   UNL     1      44.468  80.532  37.856  0.00  0.00    -0.113 OA
ENDROOT
TORSDOF 0
REMARK  Name = Histamine_Phosphate
REMARK  2 active torsions:
REMARK  status: ('A' for Active; 'I' for Inactive)
REMARK    1  A    between atoms: C_2  and  C_6
REMARK    2  A    between atoms: C_6  and  C_7
REMARK                            x       y       z     vdW  Elec       q    Type
REMARK                         _______ _______ _______ _____ _____    ______ ____
ROOT
ATOM      1  O   UNL     1      45.347  79.889  40.594  0.00  0.00    -0.113 OA
ATOM      2  P   UNL     1      45.459  80.650  39.097  0.00  0.00    +0.559 P 
ATOM      3  O   UNL     1      46.651  80.115  38.334  0.00  0.00    -0.220 OA
ATOM      4  O   UNL     1      45.596  82.336  39.260  0.00  0.00    -0.113 OA
ATOM      5  O   UNL     1      44.083  80.368  38.142  0.00  0.00    -0.113 OA
ENDROOT
TORSDOF 0
