REMARK  Name = Hm61713
REMARK  6 active torsions:
REMARK  status: ('A' for Active; 'I' for Inactive)
REMARK    1  A    between atoms: N_5  and  C_8
REMARK    2  A    between atoms: C_11  and  N_14
REMARK    3  A    between atoms: C_19  and  O_21
REMARK    4  A    between atoms: O_21  and  C_22
REMARK    5  A    between atoms: C_26  and  N_28
REMARK    6  A    between atoms: C_29  and  C_31
REMARK                            x       y       z     vdW  Elec       q    Type
REMARK                         _______ _______ _______ _____ _____    ______ ____
ROOT
ATOM      1  N   UNL     1      43.583  79.880  37.600  0.00  0.00    -0.178 NA
ATOM      2  C   UNL     1      44.620  80.289  38.497  0.00  0.00    +0.243 A 
ATOM      3  N   UNL     1      45.323  81.389  38.298  0.00  0.00    -0.211 NA
ATOM      4  C   UNL     1      46.319  81.831  39.111  0.00  0.00    +0.095 A 
ATOM      5  C   UNL     1      46.562  81.036  40.198  0.00  0.00    +0.101 A 
ATOM      6  C   UNL     1      45.823  79.871  40.417  0.00  0.00    +0.239 A 
ATOM      7  N   UNL     1      44.851  79.478  39.584  0.00  0.00    -0.176 NA
ATOM      8  S   UNL     1      47.834  81.844  40.994  0.00  0.00    -0.080 S 
ATOM      9  C   UNL     1      48.023  83.166  39.929  0.00  0.00    +0.037 A 
ATOM     10  C   UNL     1      47.076  82.931  38.975  0.00  0.00    +0.027 A 
ENDROOT
BRANCH   1  14
ATOM     11  C   UNL     1      40.826  76.692  38.038  0.00  0.00    +0.048 A 
ATOM     12  C   UNL     1      40.720  77.621  37.028  0.00  0.00    +0.016 A 
ATOM     13  C   UNL     1      41.609  78.658  36.892  0.00  0.00    +0.018 A 
ATOM     14  C   UNL     1      42.678  78.820  37.784  0.00  0.00    +0.074 A 
ATOM     15  C   UNL     1      42.788  77.906  38.782  0.00  0.00    +0.018 A 
ATOM     16  C   UNL     1      41.880  76.861  38.908  0.00  0.00    +0.016 A 
BRANCH  11  21
ATOM     17  C   UNL     1      39.743  73.834  35.646  0.00  0.00    +0.090 C 
ATOM     18  N   UNL     1      38.867  73.638  36.766  0.00  0.00    -0.269 NA
ATOM     19  C   UNL     1      37.965  74.740  36.984  0.00  0.00    +0.094 C 
ATOM     20  C   UNL     1      38.489  75.704  38.030  0.00  0.00    +0.108 C 
ATOM     21  N   UNL     1      39.914  75.619  38.205  0.00  0.00    -0.305 N 
ATOM     22  C   UNL     1      40.422  74.286  38.575  0.00  0.00    +0.108 C 
ATOM     23  C   UNL     1      39.532  73.207  37.967  0.00  0.00    +0.094 C 
ENDBRANCH  11  21
ENDBRANCH   1  14
BRANCH   6  24
ATOM     24  O   UNL     1      46.169  79.157  41.554  0.00  0.00    -0.435 OA
BRANCH  24  25
ATOM     25  C   UNL     1      45.642  77.919  41.853  0.00  0.00    +0.149 A 
ATOM     26  C   UNL     1      45.242  77.065  40.841  0.00  0.00    +0.038 A 
ATOM     27  C   UNL     1      44.715  75.827  41.111  0.00  0.00    +0.004 A 
ATOM     28  C   UNL     1      44.562  75.378  42.417  0.00  0.00    +0.017 A 
ATOM     29  C   UNL     1      44.947  76.195  43.443  0.00  0.00    +0.077 A 
ATOM     30  C   UNL     1      45.484  77.460  43.129  0.00  0.00    +0.054 A 
BRANCH  29  31
ATOM     31  N   UNL     1      44.838  75.823  44.801  0.00  0.00    -0.175 NA
ATOM     32  C   UNL     1      45.002  76.624  45.931  0.00  0.00    +0.269 C 
ATOM     33  O   UNL     1      45.030  77.852  45.813  0.00  0.00    -0.268 OA
BRANCH  32  34
ATOM     34  C   UNL     1      45.144  76.029  47.287  0.00  0.00    +0.060 C 
ATOM     35  C   UNL     1      45.250  76.817  48.325  0.00  0.00    +0.005 C 
ENDBRANCH  32  34
ENDBRANCH  29  31
ENDBRANCH  24  25
ENDBRANCH   6  24
TORSDOF 6
