REMARK  Name = HTF_919
REMARK  7 active torsions:
REMARK  status: ('A' for Active; 'I' for Inactive)
REMARK    1  A    between atoms: C_2  and  C_3
REMARK    2  A    between atoms: C_3  and  C_4
REMARK    3  A    between atoms: C_4  and  C_5
REMARK    4  A    between atoms: C_5  and  N_6
REMARK    5  A    between atoms: N_9  and  N_10
REMARK    6  A    between atoms: C_11  and  C_12
REMARK    7  A    between atoms: C_18  and  O_21
REMARK                            x       y       z     vdW  Elec       q    Type
REMARK                         _______ _______ _______ _____ _____    ______ ____
ROOT
ATOM      1  N   UNL     1      47.339  81.495  40.920  0.00  0.00    -0.143 NA
ATOM      2  C   UNL     1      48.170  80.665  41.404  0.00  0.00    +0.124 C 
ENDROOT
BRANCH   2   3
ATOM      3  C   UNL     1      49.408  81.046  42.022  0.00  0.00    +0.042 A 
ATOM      4  C   UNL     1      50.606  80.372  42.059  0.00  0.00    +0.100 A 
ATOM      5  N   UNL     1      51.538  81.087  42.754  0.00  0.00    -0.244 NA
ATOM      6  C   UNL     1      50.917  82.206  43.147  0.00  0.00    +0.082 A 
ATOM      7  C   UNL     1      49.612  82.239  42.730  0.00  0.00    +0.024 A 
ATOM      8  C   UNL     1      48.779  83.313  43.028  0.00  0.00    +0.038 A 
ATOM      9  C   UNL     1      49.224  84.395  43.757  0.00  0.00    +0.139 A 
ATOM     10  C   UNL     1      50.537  84.366  44.179  0.00  0.00    +0.038 A 
ATOM     11  C   UNL     1      51.369  83.306  43.888  0.00  0.00    +0.022 A 
BRANCH   9  12
ATOM     12  O   UNL     1      48.380  85.468  44.051  0.00  0.00    -0.471 OA
ATOM     13  C   UNL     1      47.158  85.595  43.340  0.00  0.00    +0.252 C 
ENDBRANCH   9  12
ENDBRANCH   2   3
BRANCH   1  17
ATOM     14  N   UNL     1      45.058  80.468  39.492  0.00  0.00    -0.234 NA
ATOM     15  C   UNL     1      45.718  81.488  39.095  0.00  0.00    +0.284 C 
ATOM     16  N   UNL     1      45.134  82.364  38.144  0.00  0.00    -0.104 NA
ATOM     17  N   UNL     1      47.014  81.719  39.614  0.00  0.00    -0.107 NA
BRANCH  14  18
ATOM     18  C   UNL     1      43.711  80.205  39.140  0.00  0.00    +0.129 C 
BRANCH  18  19
ATOM     19  C   UNL     1      43.387  78.759  39.195  0.00  0.00    +0.026 C 
BRANCH  19  20
ATOM     20  C   UNL     1      42.029  78.339  38.754  0.00  0.00    +0.002 C 
BRANCH  20  22
ATOM     21  C   UNL     1      41.730  76.336  40.154  0.00  0.00    +0.000 C 
ATOM     22  C   UNL     1      41.798  76.857  38.718  0.00  0.00    +0.000 C 
ENDBRANCH  20  22
ENDBRANCH  19  20
ENDBRANCH  18  19
ENDBRANCH  14  18
ENDBRANCH   1  17
TORSDOF 7
