REMARK  Name = Huperzine_A
REMARK  0 active torsions:
REMARK  status: ('A' for Active; 'I' for Inactive)
REMARK                            x       y       z     vdW  Elec       q    Type
REMARK                         _______ _______ _______ _____ _____    ______ ____
ROOT
ATOM      1  C   UNL     1      52.100  82.565  41.866  0.00  0.00    +0.030 C 
ATOM      2  C   UNL     1      50.856  81.854  42.237  0.00  0.00    -0.032 C 
ATOM      3  C   UNL     1      49.643  82.305  42.048  0.00  0.00    -0.025 C 
ATOM      4  C   UNL     1      49.433  83.652  41.394  0.00  0.00    +0.047 C 
ATOM      5  C   UNL     1      48.842  83.371  40.044  0.00  0.00    +0.054 C 
ATOM      6  C   UNL     1      47.684  82.448  40.172  0.00  0.00    +0.060 A 
ATOM      7  C   UNL     1      47.482  81.637  41.261  0.00  0.00    +0.011 A 
ATOM      8  C   UNL     1      48.402  81.600  42.427  0.00  0.00    +0.116 C 
ATOM      9  C   UNL     1      47.791  82.394  43.568  0.00  0.00    +0.047 C 
ATOM     10  C   UNL     1      47.909  83.863  43.307  0.00  0.00    -0.046 C 
ATOM     11  C   UNL     1      48.422  84.375  42.211  0.00  0.00    -0.030 C 
ATOM     12  C   UNL     1      47.403  84.771  44.381  0.00  0.00    +0.026 C 
ATOM     13  N   UNL     1      48.687  80.275  42.869  0.00  0.00    -0.125 NA
ATOM     14  C   UNL     1      46.364  80.827  41.251  0.00  0.00    +0.003 A 
ATOM     15  C   UNL     1      45.472  80.820  40.192  0.00  0.00    +0.062 A 
ATOM     16  C   UNL     1      45.715  81.646  39.126  0.00  0.00    +0.279 A 
ATOM     17  O   UNL     1      44.900  81.649  38.144  0.00  0.00    -0.265 OA
ATOM     18  N   UNL     1      46.809  82.440  39.134  0.00  0.00    -0.212 NA
ENDROOT
TORSDOF 0
