REMARK  Name = Hydromorphone
REMARK  0 active torsions:
REMARK  status: ('A' for Active; 'I' for Inactive)
REMARK                            x       y       z     vdW  Elec       q    Type
REMARK                         _______ _______ _______ _____ _____    ______ ____
ROOT
ATOM      1  C   UNL     1      45.693  80.810  39.657  0.00  0.00    +0.090 C 
ATOM      2  N   UNL     1      46.249  81.338  40.889  0.00  0.00    -0.272 NA
ATOM      3  C   UNL     1      46.790  80.244  41.631  0.00  0.00    +0.073 C 
ATOM      4  C   UNL     1      47.758  80.629  42.697  0.00  0.00    +0.025 C 
ATOM      5  C   UNL     1      48.782  81.623  42.251  0.00  0.00    +0.068 C 
ATOM      6  C   UNL     1      48.602  81.880  40.783  0.00  0.00    +0.023 C 
ATOM      7  C   UNL     1      47.200  82.379  40.590  0.00  0.00    +0.062 C 
ATOM      8  C   UNL     1      46.837  83.612  41.333  0.00  0.00    +0.042 C 
ATOM      9  C   UNL     1      47.673  83.864  42.505  0.00  0.00    -0.022 A 
ATOM     10  C   UNL     1      48.574  82.935  42.910  0.00  0.00    +0.014 A 
ATOM     11  C   UNL     1      49.414  83.029  43.964  0.00  0.00    +0.173 A 
ATOM     12  C   UNL     1      49.342  84.210  44.713  0.00  0.00    +0.229 A 
ATOM     13  C   UNL     1      48.440  85.208  44.355  0.00  0.00    +0.045 A 
ATOM     14  C   UNL     1      47.616  85.032  43.261  0.00  0.00    -0.001 A 
ATOM     15  O   UNL     1      50.192  84.332  45.799  0.00  0.00    -0.283 OA
ATOM     16  O   UNL     1      50.159  81.858  44.012  0.00  0.00    -0.469 OA
ATOM     17  C   UNL     1      50.173  81.293  42.679  0.00  0.00    +0.226 C 
ATOM     18  C   UNL     1      51.212  81.900  41.839  0.00  0.00    +0.191 C 
ATOM     19  O   UNL     1      52.262  82.325  42.283  0.00  0.00    -0.292 OA
ATOM     20  C   UNL     1      50.990  82.010  40.373  0.00  0.00    +0.068 C 
ATOM     21  C   UNL     1      49.659  82.747  40.194  0.00  0.00    +0.010 C 
ENDROOT
TORSDOF 0
