REMARK  Name = Hydroxyzine
REMARK  8 active torsions:
REMARK  status: ('A' for Active; 'I' for Inactive)
REMARK    1  A    between atoms: N_3  and  C_13
REMARK    2  A    between atoms: N_6  and  C_7
REMARK    3  A    between atoms: C_7  and  C_8
REMARK    4  A    between atoms: C_8  and  O_9
REMARK    5  A    between atoms: O_9  and  C_10
REMARK    6  A    between atoms: C_10  and  C_11
REMARK    7  A    between atoms: C_13  and  C_14
REMARK    8  A    between atoms: C_13  and  C_20
REMARK                            x       y       z     vdW  Elec       q    Type
REMARK                         _______ _______ _______ _____ _____    ______ ____
ROOT
ATOM      1  C   UNL     1      43.775  78.957  40.553  0.00  0.00    +0.103 C 
ENDROOT
BRANCH   1   2
ATOM      2  C   UNL     1      44.858  79.924  40.288  0.00  0.00    -0.004 A 
ATOM      3  C   UNL     1      45.952  80.045  41.110  0.00  0.00    -0.002 A 
ATOM      4  C   UNL     1      46.979  80.936  40.894  0.00  0.00    +0.011 A 
ATOM      5  C   UNL     1      46.928  81.755  39.806  0.00  0.00    +0.058 A 
ATOM      6  C   UNL     1      45.852  81.672  38.950  0.00  0.00    +0.011 A 
ATOM      7  C   UNL     1      44.818  80.758  39.191  0.00  0.00    -0.002 A 
ATOM      8 CL   UNL     1      48.218  82.927  39.465  0.00  0.00    -0.082 Cl
ENDBRANCH   1   2
BRANCH   1  11
ATOM      9  C   UNL     1      42.393  76.460  38.167  0.00  0.00    +0.090 C 
ATOM     10  C   UNL     1      43.014  77.026  39.415  0.00  0.00    +0.090 C 
ATOM     11  N   UNL     1      43.152  78.460  39.352  0.00  0.00    -0.264 NA
ATOM     12  C   UNL     1      41.886  79.037  39.066  0.00  0.00    +0.090 C 
ATOM     13  C   UNL     1      40.771  78.044  38.934  0.00  0.00    +0.090 C 
ATOM     14  N   UNL     1      41.048  76.944  38.069  0.00  0.00    -0.268 NA
BRANCH  14  15
ATOM     15  C   UNL     1      40.596  77.184  36.730  0.00  0.00    +0.105 C 
BRANCH  15  16
ATOM     16  C   UNL     1      39.401  76.376  36.357  0.00  0.00    +0.160 C 
BRANCH  16  17
ATOM     17  O   UNL     1      39.760  75.145  35.864  0.00  0.00    -0.350 OA
BRANCH  17  18
ATOM     18  C   UNL     1      38.998  74.102  36.320  0.00  0.00    +0.178 C 
BRANCH  18  19
ATOM     19  C   UNL     1      38.959  72.919  35.373  0.00  0.00    +0.214 C 
ATOM     20  O   UNL     1      38.222  73.204  34.229  0.00  0.00    -0.218 OA
ENDBRANCH  18  19
ENDBRANCH  17  18
ENDBRANCH  16  17
ENDBRANCH  15  16
ENDBRANCH  14  15
ENDBRANCH   1  11
BRANCH   1  21
ATOM     21  C   UNL     1      44.315  77.868  41.399  0.00  0.00    -0.004 A 
ATOM     22  C   UNL     1      45.289  77.048  40.873  0.00  0.00    -0.003 A 
ATOM     23  C   UNL     1      45.869  76.004  41.558  0.00  0.00    -0.000 A 
ATOM     24  C   UNL     1      45.440  75.778  42.848  0.00  0.00    -0.000 A 
ATOM     25  C   UNL     1      44.462  76.596  43.386  0.00  0.00    -0.000 A 
ATOM     26  C   UNL     1      43.889  77.638  42.689  0.00  0.00    -0.003 A 
ENDBRANCH   1  21
TORSDOF 8
