REMARK  Name = Hydroxyprogesterone
REMARK  1 active torsions:
REMARK  status: ('A' for Active; 'I' for Inactive)
REMARK    1  A    between atoms: C_2  and  C_4
REMARK                            x       y       z     vdW  Elec       q    Type
REMARK                         _______ _______ _______ _____ _____    ______ ____
ROOT
ATOM      1  C   UNL     1      50.503  82.878  43.049  0.00  0.00    +0.177 C 
ATOM      2  C   UNL     1      51.498  82.808  41.884  0.00  0.00    +0.038 C 
ATOM      3  C   UNL     1      50.560  82.691  40.695  0.00  0.00    +0.003 C 
ATOM      4  C   UNL     1      49.586  81.663  41.194  0.00  0.00    +0.003 C 
ATOM      5  C   UNL     1      49.537  81.774  42.688  0.00  0.00    +0.032 C 
ATOM      6  C   UNL     1      48.176  82.004  43.254  0.00  0.00    +0.003 C 
ATOM      7  C   UNL     1      47.057  81.312  42.569  0.00  0.00    +0.000 C 
ATOM      8  C   UNL     1      47.412  80.640  41.294  0.00  0.00    +0.003 C 
ATOM      9  C   UNL     1      48.286  81.594  40.493  0.00  0.00    +0.001 C 
ATOM     10  C   UNL     1      47.565  82.845  40.222  0.00  0.00    +0.004 C 
ATOM     11  C   UNL     1      46.403  82.577  39.300  0.00  0.00    +0.022 C 
ATOM     12  C   UNL     1      45.953  81.162  39.345  0.00  0.00    -0.042 C 
ATOM     13  C   UNL     1      45.234  80.748  38.320  0.00  0.00    +0.029 C 
ATOM     14  C   UNL     1      44.763  79.377  38.301  0.00  0.00    +0.173 C 
ATOM     15  O   UNL     1      43.677  79.047  37.776  0.00  0.00    -0.291 OA
ATOM     16  C   UNL     1      45.601  78.339  38.926  0.00  0.00    +0.069 C 
ATOM     17  C   UNL     1      46.634  78.850  39.859  0.00  0.00    +0.012 C 
ATOM     18  C   UNL     1      46.261  80.226  40.445  0.00  0.00    +0.016 C 
ATOM     19  C   UNL     1      44.993  79.978  41.229  0.00  0.00    +0.004 C 
ATOM     20  C   UNL     1      50.091  80.504  43.341  0.00  0.00    +0.003 C 
ATOM     21  O   UNL     1      51.245  82.524  44.185  0.00  0.00    -0.218 OA
ENDROOT
BRANCH   1  23
ATOM     22  C   UNL     1      48.639  84.513  43.893  0.00  0.00    +0.075 C 
ATOM     23  C   UNL     1      49.911  84.213  43.170  0.00  0.00    +0.178 C 
ATOM     24  O   UNL     1      50.466  85.164  42.659  0.00  0.00    -0.293 OA
ENDBRANCH   1  23
TORSDOF 1
