REMARK  Name = Hydroxyurea
REMARK  0 active torsions:
REMARK  status: ('A' for Active; 'I' for Inactive)
REMARK                            x       y       z     vdW  Elec       q    Type
REMARK                         _______ _______ _______ _____ _____    ______ ____
ROOT
ATOM      1  C   UNL     1      46.167  80.906  39.932  0.00  0.00    +0.387 C 
ATOM      2  O   UNL     1      46.977  81.760  40.374  0.00  0.00    -0.245 OA
ATOM      3  N   UNL     1      45.998  79.653  40.572  0.00  0.00    -0.066 NA
ATOM      4  N   UNL     1      45.439  81.272  38.763  0.00  0.00    -0.007 NA
ATOM      5  O   UNL     1      45.679  82.420  38.090  0.00  0.00    -0.069 OA
ENDROOT
TORSDOF 0
