REMARK  Name = Hydroxyethyl_starch
REMARK  17 active torsions:
REMARK  status: ('A' for Active; 'I' for Inactive)
REMARK    1  A    between atoms: C_1  and  C_2
REMARK    2  A    between atoms: C_2  and  O_3
REMARK    3  A    between atoms: O_3  and  C_4
REMARK    4  A    between atoms: C_4  and  C_5
REMARK    5  A    between atoms: C_6  and  O_23
REMARK    6  A    between atoms: C_7  and  O_19
REMARK    7  A    between atoms: C_8  and  O_15
REMARK    8  A    between atoms: C_9  and  O_11
REMARK    9  A    between atoms: O_11  and  C_12
REMARK   10  A    between atoms: C_12  and  C_13
REMARK   11  A    between atoms: O_15  and  C_16
REMARK   12  A    between atoms: C_16  and  C_17
REMARK   13  A    between atoms: O_19  and  C_20
REMARK   14  A    between atoms: C_20  and  C_21
REMARK   15  A    between atoms: O_23  and  C_24
REMARK   16  A    between atoms: C_24  and  C_25
REMARK   17  A    between atoms: C_28  and  C_29
REMARK                            x       y       z     vdW  Elec       q    Type
REMARK                         _______ _______ _______ _____ _____    ______ ____
ROOT
ATOM      1  C   UNL     1      43.498  77.949  40.933  0.00  0.00    +0.177 C 
ATOM      2  C   UNL     1      43.688  76.793  41.856  0.00  0.00    +0.174 C 
ATOM      3  C   UNL     1      43.436  75.456  41.233  0.00  0.00    +0.177 C 
ATOM      4  C   UNL     1      42.151  75.555  40.436  0.00  0.00    +0.201 C 
ATOM      5  C   UNL     1      42.389  76.614  39.385  0.00  0.00    +0.266 C 
ATOM      6  O   UNL     1      42.500  77.830  40.007  0.00  0.00    -0.326 OA
ENDROOT
BRANCH   4   7
ATOM      7  O   UNL     1      41.724  74.363  39.938  0.00  0.00    -0.346 OA
BRANCH   7   8
ATOM      8  C   UNL     1      42.605  73.636  39.192  0.00  0.00    +0.178 C 
BRANCH   8   9
ATOM      9  C   UNL     1      42.087  72.239  38.841  0.00  0.00    +0.214 C 
ATOM     10  O   UNL     1      40.785  72.297  38.371  0.00  0.00    -0.218 OA
ENDBRANCH   8   9
ENDBRANCH   7   8
ENDBRANCH   4   7
BRANCH   2  11
ATOM     11  O   UNL     1      42.852  76.991  42.956  0.00  0.00    -0.348 OA
BRANCH  11  12
ATOM     12  C   UNL     1      43.529  77.496  44.047  0.00  0.00    +0.178 C 
BRANCH  12  13
ATOM     13  C   UNL     1      44.834  76.750  44.221  0.00  0.00    +0.214 C 
ATOM     14  O   UNL     1      45.221  76.681  45.554  0.00  0.00    -0.218 OA
ENDBRANCH  12  13
ENDBRANCH  11  12
ENDBRANCH   2  11
BRANCH   3  15
ATOM     15  O   UNL     1      44.513  75.157  40.402  0.00  0.00    -0.348 OA
BRANCH  15  16
ATOM     16  C   UNL     1      45.235  74.060  40.864  0.00  0.00    +0.178 C 
BRANCH  16  17
ATOM     17  C   UNL     1      44.555  73.361  41.998  0.00  0.00    +0.214 C 
ATOM     18  O   UNL     1      45.331  73.308  43.148  0.00  0.00    -0.218 OA
ENDBRANCH  16  17
ENDBRANCH  15  16
ENDBRANCH   3  15
BRANCH   5  19
ATOM     19  O   UNL     1      41.421  76.614  38.415  0.00  0.00    -0.326 OA
BRANCH  19  20
ATOM     20  C   UNL     1      40.893  77.889  38.191  0.00  0.00    +0.180 C 
BRANCH  20  21
ATOM     21  C   UNL     1      39.832  77.754  37.126  0.00  0.00    +0.214 C 
ATOM     22  O   UNL     1      38.604  77.593  37.767  0.00  0.00    -0.218 OA
ENDBRANCH  20  21
ENDBRANCH  19  20
ENDBRANCH   5  19
BRANCH   1  23
ATOM     23  C   UNL     1      44.847  78.211  40.243  0.00  0.00    +0.174 C 
BRANCH  23  24
ATOM     24  O   UNL     1      44.788  79.472  39.716  0.00  0.00    -0.348 OA
BRANCH  24  25
ATOM     25  C   UNL     1      45.569  80.416  40.301  0.00  0.00    +0.178 C 
BRANCH  25  26
ATOM     26  C   UNL     1      46.457  81.194  39.406  0.00  0.00    +0.214 C 
ATOM     27  O   UNL     1      45.651  81.726  38.372  0.00  0.00    -0.218 OA
ENDBRANCH  25  26
ENDBRANCH  24  25
ENDBRANCH  23  24
ENDBRANCH   1  23
TORSDOF 16
REMARK  Name = Hydroxyethyl_starch
REMARK  17 active torsions:
REMARK  status: ('A' for Active; 'I' for Inactive)
REMARK    1  A    between atoms: C_1  and  C_2
REMARK    2  A    between atoms: C_2  and  O_3
REMARK    3  A    between atoms: O_3  and  C_4
REMARK    4  A    between atoms: C_4  and  C_5
REMARK    5  A    between atoms: C_6  and  O_23
REMARK    6  A    between atoms: C_7  and  O_19
REMARK    7  A    between atoms: C_8  and  O_15
REMARK    8  A    between atoms: C_9  and  O_11
REMARK    9  A    between atoms: O_11  and  C_12
REMARK   10  A    between atoms: C_12  and  C_13
REMARK   11  A    between atoms: O_15  and  C_16
REMARK   12  A    between atoms: C_16  and  C_17
REMARK   13  A    between atoms: O_19  and  C_20
REMARK   14  A    between atoms: C_20  and  C_21
REMARK   15  A    between atoms: O_23  and  C_24
REMARK   16  A    between atoms: C_24  and  C_25
REMARK   17  A    between atoms: C_28  and  C_29
REMARK                            x       y       z     vdW  Elec       q    Type
REMARK                         _______ _______ _______ _____ _____    ______ ____
ROOT
ATOM      1  C   UNL     1      44.329  76.881  40.412  0.00  0.00    +0.184 C 
ATOM      2  C   UNL     1      43.987  75.596  41.134  0.00  0.00    +0.214 C 
ATOM      3  C   UNL     1      42.454  75.541  41.143  0.00  0.00    +0.220 C 
ATOM      4  C   UNL     1      42.018  75.480  39.706  0.00  0.00    +0.243 C 
ATOM      5  C   UNL     1      42.598  76.702  39.010  0.00  0.00    +0.302 C 
ATOM      6  O   UNL     1      43.992  76.718  39.083  0.00  0.00    -0.324 OA
ATOM      7  O   UNL     1      42.134  76.793  37.703  0.00  0.00    -0.187 OA
ATOM      8  O   UNL     1      40.633  75.615  39.671  0.00  0.00    -0.215 OA
ATOM      9  O   UNL     1      41.968  74.529  41.923  0.00  0.00    -0.217 OA
ATOM     10  O   UNL     1      44.486  74.485  40.417  0.00  0.00    -0.218 OA
ENDROOT
BRANCH   1  11
ATOM     11  C   UNL     1      45.759  77.291  40.626  0.00  0.00    +0.214 C 
ATOM     12  O   UNL     1      46.360  77.329  39.349  0.00  0.00    -0.218 OA
ENDBRANCH   1  11
TORSDOF 1
