REMARK  Name = Hydroxystilbamidine_Isethionate
REMARK  6 active torsions:
REMARK  status: ('A' for Active; 'I' for Inactive)
REMARK    1  A    between atoms: C_3  and  C_19
REMARK    2  A    between atoms: C_6  and  C_7
REMARK    3  A    between atoms: C_8  and  C_9
REMARK    4  A    between atoms: C_12  and  C_15
REMARK    5  A    between atoms: C_22  and  C_23
REMARK    6  A    between atoms: C_23  and  S_24
REMARK                            x       y       z     vdW  Elec       q    Type
REMARK                         _______ _______ _______ _____ _____    ______ ____
ROOT
ATOM      1  C   UNL     1      44.206  78.434  39.687  0.00  0.00    +0.000 C 
ATOM      2  C   UNL     1      44.542  79.602  39.210  0.00  0.00    +0.003 C 
ENDROOT
BRANCH   2   3
ATOM      3  C   UNL     1      45.670  80.393  39.714  0.00  0.00    +0.039 A 
ATOM      4  C   UNL     1      45.953  81.622  39.146  0.00  0.00    +0.196 A 
ATOM      5  C   UNL     1      47.011  82.357  39.622  0.00  0.00    +0.045 A 
ATOM      6  C   UNL     1      47.781  81.875  40.655  0.00  0.00    +0.042 A 
ATOM      7  C   UNL     1      47.490  80.651  41.212  0.00  0.00    +0.003 A 
ATOM      8  C   UNL     1      46.420  79.881  40.746  0.00  0.00    +0.003 A 
ATOM      9  O   UNL     1      45.155  82.098  38.092  0.00  0.00    -0.287 OA
BRANCH   6  10
ATOM     10  C   UNL     1      48.898  82.622  41.178  0.00  0.00    +0.205 C 
ATOM     11  N   UNL     1      49.353  83.623  40.530  0.00  0.00    -0.125 NA
ATOM     12  N   UNL     1      49.493  82.258  42.400  0.00  0.00    -0.125 NA
ENDBRANCH   6  10
ENDBRANCH   2   3
BRANCH   1  18
ATOM     13  C   UNL     1      42.328  78.186  38.129  0.00  0.00    +0.000 A 
ATOM     14  C   UNL     1      41.261  77.401  37.676  0.00  0.00    +0.003 A 
ATOM     15  C   UNL     1      40.932  76.176  38.199  0.00  0.00    +0.039 A 
ATOM     16  C   UNL     1      41.743  75.736  39.240  0.00  0.00    +0.003 A 
ATOM     17  C   UNL     1      42.794  76.472  39.710  0.00  0.00    +0.000 A 
ATOM     18  C   UNL     1      43.082  77.698  39.149  0.00  0.00    +0.000 A 
BRANCH  15  19
ATOM     19  C   UNL     1      39.818  75.391  37.704  0.00  0.00    +0.205 C 
ATOM     20  N   UNL     1      39.182  75.792  36.667  0.00  0.00    -0.125 NA
ATOM     21  N   UNL     1      39.403  74.192  38.324  0.00  0.00    -0.125 NA
ENDBRANCH  15  19
ENDBRANCH   1  18
TORSDOF 4
REMARK  Name = Hydroxystilbamidine_Isethionate
REMARK  6 active torsions:
REMARK  status: ('A' for Active; 'I' for Inactive)
REMARK    1  A    between atoms: C_3  and  C_19
REMARK    2  A    between atoms: C_6  and  C_7
REMARK    3  A    between atoms: C_8  and  C_9
REMARK    4  A    between atoms: C_12  and  C_15
REMARK    5  A    between atoms: C_22  and  C_23
REMARK    6  A    between atoms: C_23  and  S_24
REMARK                            x       y       z     vdW  Elec       q    Type
REMARK                         _______ _______ _______ _____ _____    ______ ____
ROOT
ATOM      1  S   UNL     1      45.558  80.106  39.435  0.00  0.00    +0.124 S 
ATOM      2  O   UNL     1      45.355  80.666  40.814  0.00  0.00    -0.144 OA
ATOM      3  O   UNL     1      46.114  81.166  38.528  0.00  0.00    -0.144 OA
ATOM      4  O   UNL     1      46.644  78.851  39.542  0.00  0.00    -0.047 OA
ENDROOT
BRANCH   1   5
ATOM      5  C   UNL     1      43.985  79.620  38.809  0.00  0.00    +0.220 C 
BRANCH   5   6
ATOM      6  C   UNL     1      43.299  78.745  39.848  0.00  0.00    +0.210 C 
ATOM      7  O   UNL     1      41.917  78.882  39.812  0.00  0.00    -0.218 OA
ENDBRANCH   5   6
ENDBRANCH   1   5
TORSDOF 2
