REMARK  Name = Hydrocodone
REMARK  1 active torsions:
REMARK  status: ('A' for Active; 'I' for Inactive)
REMARK    1  A    between atoms: C_12  and  O_15
REMARK                            x       y       z     vdW  Elec       q    Type
REMARK                         _______ _______ _______ _____ _____    ______ ____
ROOT
ATOM      1  C   UNL     1      44.851  81.174  39.504  0.00  0.00    +0.090 C 
ATOM      2  N   UNL     1      46.275  81.354  39.708  0.00  0.00    -0.272 NA
ATOM      3  C   UNL     1      46.900  80.316  40.440  0.00  0.00    +0.073 C 
ATOM      4  C   UNL     1      47.351  80.601  41.803  0.00  0.00    +0.025 C 
ATOM      5  C   UNL     1      47.658  82.048  42.106  0.00  0.00    +0.068 C 
ATOM      6  C   UNL     1      46.581  82.918  41.575  0.00  0.00    +0.023 C 
ATOM      7  C   UNL     1      46.569  82.691  40.088  0.00  0.00    +0.062 C 
ATOM      8  C   UNL     1      47.795  83.147  39.356  0.00  0.00    +0.042 C 
ATOM      9  C   UNL     1      49.000  82.876  40.130  0.00  0.00    -0.022 A 
ATOM     10  C   UNL     1      48.902  82.393  41.391  0.00  0.00    +0.014 A 
ATOM     11  C   UNL     1      49.950  82.113  42.223  0.00  0.00    +0.168 A 
ATOM     12  C   UNL     1      51.222  82.344  41.726  0.00  0.00    +0.172 A 
ATOM     13  C   UNL     1      51.403  82.838  40.442  0.00  0.00    +0.040 A 
ATOM     14  C   UNL     1      50.290  83.096  39.667  0.00  0.00    -0.001 A 
ATOM     15  O   UNL     1      49.402  81.643  43.421  0.00  0.00    -0.469 OA
ATOM     16  C   UNL     1      48.077  82.238  43.514  0.00  0.00    +0.226 C 
ATOM     17  C   UNL     1      48.324  83.696  43.722  0.00  0.00    +0.191 C 
ATOM     18  O   UNL     1      48.919  84.028  44.748  0.00  0.00    -0.292 OA
ATOM     19  C   UNL     1      47.884  84.724  42.757  0.00  0.00    +0.068 C 
ATOM     20  C   UNL     1      46.679  84.351  41.958  0.00  0.00    +0.010 C 
ENDROOT
BRANCH  12  21
ATOM     21  O   UNL     1      52.291  82.067  42.550  0.00  0.00    -0.468 OA
ATOM     22  C   UNL     1      53.401  82.924  42.708  0.00  0.00    +0.253 C 
ENDBRANCH  12  21
TORSDOF 1
