REMARK  Name = Hydrastine
REMARK  3 active torsions:
REMARK  status: ('A' for Active; 'I' for Inactive)
REMARK    1  A    between atoms: C_11  and  C_12
REMARK    2  A    between atoms: C_15  and  O_21
REMARK    3  A    between atoms: C_16  and  O_19
REMARK                            x       y       z     vdW  Elec       q    Type
REMARK                         _______ _______ _______ _____ _____    ______ ____
ROOT
ATOM      1  C   UNL     1      47.808  79.395  42.389  0.00  0.00    +0.090 C 
ATOM      2  N   UNL     1      48.215  79.685  41.050  0.00  0.00    -0.266 NA
ATOM      3  C   UNL     1      49.652  79.529  40.950  0.00  0.00    +0.077 C 
ATOM      4  C   UNL     1      50.257  80.323  42.066  0.00  0.00    +0.044 C 
ATOM      5  C   UNL     1      49.622  81.660  42.221  0.00  0.00    -0.020 A 
ATOM      6  C   UNL     1      50.221  82.570  43.061  0.00  0.00    +0.036 A 
ATOM      7  C   UNL     1      49.712  83.842  43.270  0.00  0.00    +0.176 A 
ATOM      8  C   UNL     1      48.561  84.217  42.616  0.00  0.00    +0.176 A 
ATOM      9  C   UNL     1      47.952  83.284  41.758  0.00  0.00    +0.037 A 
ATOM     10  C   UNL     1      48.451  82.031  41.551  0.00  0.00    -0.005 A 
ATOM     11  C   UNL     1      47.828  81.064  40.667  0.00  0.00    +0.125 C 
ATOM     12  O   UNL     1      48.270  85.520  42.995  0.00  0.00    -0.435 OA
ATOM     13  C   UNL     1      49.335  86.026  43.791  0.00  0.00    +0.429 C 
ATOM     14  O   UNL     1      50.140  84.907  44.057  0.00  0.00    -0.435 OA
ENDROOT
BRANCH  11  15
ATOM     15  C   UNL     1      46.336  81.020  40.619  0.00  0.00    +0.210 C 
ATOM     16  C   UNL     1      45.702  79.703  40.560  0.00  0.00    +0.028 A 
ATOM     17  C   UNL     1      44.668  79.766  39.648  0.00  0.00    +0.112 A 
ATOM     18  C   UNL     1      43.837  78.691  39.363  0.00  0.00    +0.178 A 
ATOM     19  C   UNL     1      44.071  77.510  40.034  0.00  0.00    +0.173 A 
ATOM     20  C   UNL     1      45.097  77.417  40.951  0.00  0.00    +0.040 A 
ATOM     21  C   UNL     1      45.906  78.492  41.217  0.00  0.00    +0.003 A 
ATOM     22  C   UNL     1      44.680  81.111  39.100  0.00  0.00    +0.344 C 
ATOM     23  O   UNL     1      43.853  81.509  38.227  0.00  0.00    -0.245 OA
ATOM     24  O   UNL     1      45.709  81.813  39.690  0.00  0.00    -0.443 OA
BRANCH  19  25
ATOM     25  O   UNL     1      43.241  76.437  39.749  0.00  0.00    -0.468 OA
ATOM     26  C   UNL     1      43.202  75.321  40.650  0.00  0.00    +0.253 C 
ENDBRANCH  19  25
BRANCH  18  27
ATOM     27  O   UNL     1      42.810  78.803  38.437  0.00  0.00    -0.468 OA
ATOM     28  C   UNL     1      43.082  78.328  37.124  0.00  0.00    +0.253 C 
ENDBRANCH  18  27
ENDBRANCH  11  15
TORSDOF 3
