REMARK  Name = Hydroflumethiazide
REMARK  2 active torsions:
REMARK  status: ('A' for Active; 'I' for Inactive)
REMARK    1  A    between atoms: C_6  and  S_13
REMARK    2  A    between atoms: C_7  and  C_9
REMARK                            x       y       z     vdW  Elec       q    Type
REMARK                         _______ _______ _______ _____ _____    ______ ____
ROOT
ATOM      1  C   UNL     1      46.228  83.242  38.902  0.00  0.00    +0.227 C 
ATOM      2  N   UNL     1      45.749  81.995  38.334  0.00  0.00    -0.215 NA
ATOM      3  C   UNL     1      45.492  80.870  39.172  0.00  0.00    +0.086 A 
ATOM      4  C   UNL     1      46.272  80.645  40.274  0.00  0.00    +0.140 A 
ATOM      5  C   UNL     1      46.014  79.549  41.086  0.00  0.00    +0.041 A 
ATOM      6  C   UNL     1      44.987  78.674  40.812  0.00  0.00    +0.130 A 
ATOM      7  C   UNL     1      44.187  78.874  39.712  0.00  0.00    +0.091 A 
ATOM      8  C   UNL     1      44.466  79.984  38.909  0.00  0.00    +0.023 A 
ATOM      9  S   UNL     1      47.580  81.749  40.622  0.00  0.00    +0.080 S 
ATOM     10  O   UNL     1      47.604  82.135  42.071  0.00  0.00    -0.152 OA
ATOM     11  O   UNL     1      48.860  81.010  40.249  0.00  0.00    -0.152 OA
ATOM     12  N   UNL     1      47.473  83.100  39.586  0.00  0.00    -0.054 NA
ENDROOT
BRANCH   7  13
ATOM     13  C   UNL     1      43.069  78.030  39.308  0.00  0.00    +0.420 C 
ATOM     14  F   UNL     1      42.578  78.406  38.050  0.00  0.00    -0.166 F 
ATOM     15  F   UNL     1      42.027  78.235  40.196  0.00  0.00    -0.166 F 
ATOM     16  F   UNL     1      43.310  76.687  39.257  0.00  0.00    -0.166 F 
ENDBRANCH   7  13
BRANCH   6  17
ATOM     17  S   UNL     1      44.669  77.308  41.822  0.00  0.00    +0.094 S 
ATOM     18  O   UNL     1      43.269  77.351  42.407  0.00  0.00    -0.150 OA
ATOM     19  O   UNL     1      45.578  77.385  43.045  0.00  0.00    -0.150 OA
ATOM     20  N   UNL     1      44.986  75.794  41.077  0.00  0.00    +0.039 NA
ENDBRANCH   6  17
TORSDOF 2
