REMARK  Name = Hydroxychloroquine
REMARK  9 active torsions:
REMARK  status: ('A' for Active; 'I' for Inactive)
REMARK    1  A    between atoms: C_2  and  N_3
REMARK    2  A    between atoms: N_3  and  C_4
REMARK    3  A    between atoms: N_3  and  C_21
REMARK    4  A    between atoms: C_4  and  C_5
REMARK    5  A    between atoms: C_5  and  C_6
REMARK    6  A    between atoms: C_6  and  C_7
REMARK    7  A    between atoms: C_7  and  N_9
REMARK    8  A    between atoms: N_9  and  C_10
REMARK    9  A    between atoms: C_21  and  C_22
REMARK                            x       y       z     vdW  Elec       q    Type
REMARK                         _______ _______ _______ _____ _____    ______ ____
ROOT
ATOM      1  N   UNL     1      45.039  78.712  40.867  0.00  0.00    -0.239 NA
ENDROOT
BRANCH   1   2
ATOM      2  C   UNL     1      45.264  79.852  40.066  0.00  0.00    +0.068 A 
ATOM      3  C   UNL     1      46.434  80.587  40.208  0.00  0.00    +0.033 A 
ATOM      4  C   UNL     1      47.411  80.283  41.104  0.00  0.00    +0.004 A 
ATOM      5  C   UNL     1      48.588  81.034  41.239  0.00  0.00    +0.012 A 
ATOM      6  C   UNL     1      48.751  82.121  40.428  0.00  0.00    +0.059 A 
ATOM      7  C   UNL     1      47.779  82.468  39.499  0.00  0.00    +0.031 A 
ATOM      8  C   UNL     1      46.637  81.704  39.399  0.00  0.00    +0.083 A 
ATOM      9  N   UNL     1      45.724  82.093  38.474  0.00  0.00    -0.244 NA
ATOM     10  C   UNL     1      44.599  81.375  38.346  0.00  0.00    +0.100 A 
ATOM     11  C   UNL     1      44.361  80.259  39.133  0.00  0.00    +0.037 A 
ATOM     12 CL   UNL     1      50.174  83.115  40.519  0.00  0.00    -0.082 Cl
ENDBRANCH   1   2
BRANCH   1  13
ATOM     13  C   UNL     1      43.779  78.002  40.974  0.00  0.00    +0.093 C 
ATOM     14  C   UNL     1      43.773  77.024  42.095  0.00  0.00    +0.023 C 
BRANCH  13  15
ATOM     15  C   UNL     1      43.442  77.324  39.634  0.00  0.00    +0.023 C 
BRANCH  15  16
ATOM     16  C   UNL     1      42.028  76.958  39.527  0.00  0.00    +0.019 C 
BRANCH  16  17
ATOM     17  C   UNL     1      41.453  76.427  38.277  0.00  0.00    +0.072 C 
BRANCH  17  18
ATOM     18  N   UNL     1      40.187  75.998  38.053  0.00  0.00    -0.270 NA
BRANCH  18  20
ATOM     19  C   UNL     1      40.610  74.141  36.547  0.00  0.00    +0.019 C 
ATOM     20  C   UNL     1      39.675  74.889  37.431  0.00  0.00    +0.072 C 
ENDBRANCH  18  20
BRANCH  18  21
ATOM     21  C   UNL     1      39.152  77.037  38.237  0.00  0.00    +0.108 C 
BRANCH  21  22
ATOM     22  C   UNL     1      37.938  76.728  37.400  0.00  0.00    +0.199 C 
ATOM     23  O   UNL     1      36.933  77.679  37.584  0.00  0.00    -0.219 OA
ENDBRANCH  21  22
ENDBRANCH  18  21
ENDBRANCH  17  18
ENDBRANCH  16  17
ENDBRANCH  15  16
ENDBRANCH  13  15
ENDBRANCH   1  13
TORSDOF 9
