REMARK  Name = Hydrocortisone
REMARK  2 active torsions:
REMARK  status: ('A' for Active; 'I' for Inactive)
REMARK    1  A    between atoms: C_19  and  C_20
REMARK    2  A    between atoms: C_20  and  C_22
REMARK                            x       y       z     vdW  Elec       q    Type
REMARK                         _______ _______ _______ _____ _____    ______ ____
ROOT
ATOM      1  C   UNL     1      47.015  80.512  38.163  0.00  0.00    +0.004 C 
ATOM      2  C   UNL     1      46.669  80.207  39.641  0.00  0.00    +0.018 C 
ATOM      3  C   UNL     1      46.367  78.761  39.672  0.00  0.00    +0.012 C 
ATOM      4  C   UNL     1      45.480  78.290  40.798  0.00  0.00    +0.069 C 
ATOM      5  C   UNL     1      44.204  79.019  40.645  0.00  0.00    +0.173 C 
ATOM      6  O   UNL     1      43.124  78.431  40.806  0.00  0.00    -0.291 OA
ATOM      7  C   UNL     1      44.279  80.424  40.303  0.00  0.00    +0.029 C 
ATOM      8  C   UNL     1      45.390  80.968  39.849  0.00  0.00    -0.042 C 
ATOM      9  C   UNL     1      45.438  82.415  39.510  0.00  0.00    +0.022 C 
ATOM     10  C   UNL     1      46.724  83.021  40.100  0.00  0.00    +0.004 C 
ATOM     11  C   UNL     1      47.220  82.059  41.120  0.00  0.00    +0.003 C 
ATOM     12  C   UNL     1      47.728  80.748  40.485  0.00  0.00    +0.034 C 
ATOM     13  C   UNL     1      48.214  79.955  41.648  0.00  0.00    +0.152 C 
ATOM     14  C   UNL     1      49.517  80.583  42.176  0.00  0.00    +0.036 C 
ATOM     15  C   UNL     1      49.552  82.068  42.059  0.00  0.00    +0.035 C 
ATOM     16  C   UNL     1      48.139  82.569  42.154  0.00  0.00    +0.003 C 
ATOM     17  C   UNL     1      48.378  84.048  42.180  0.00  0.00    +0.003 C 
ATOM     18  C   UNL     1      49.495  84.115  43.232  0.00  0.00    +0.038 C 
ATOM     19  C   UNL     1      50.171  82.766  43.246  0.00  0.00    +0.180 C 
ATOM     20  O   UNL     1      51.539  82.938  42.889  0.00  0.00    -0.218 OA
ATOM     21  C   UNL     1      50.280  82.558  40.834  0.00  0.00    +0.003 C 
ATOM     22  O   UNL     1      48.562  78.645  41.356  0.00  0.00    -0.223 OA
ENDROOT
BRANCH  19  23
ATOM     23  C   UNL     1      50.068  82.066  44.518  0.00  0.00    +0.211 C 
ATOM     24  O   UNL     1      50.495  80.949  44.658  0.00  0.00    -0.291 OA
BRANCH  23  25
ATOM     25  C   UNL     1      49.432  82.710  45.690  0.00  0.00    +0.248 C 
ATOM     26  O   UNL     1      49.778  82.099  46.891  0.00  0.00    -0.212 OA
ENDBRANCH  23  25
ENDBRANCH  19  23
TORSDOF 2
