REMARK  Name = Hydroxyamphetamine_Hydrobromide
REMARK  2 active torsions:
REMARK  status: ('A' for Active; 'I' for Inactive)
REMARK    1  A    between atoms: C_2  and  C_3
REMARK    2  A    between atoms: C_3  and  C_4
REMARK                            x       y       z     vdW  Elec       q    Type
REMARK                         _______ _______ _______ _____ _____    ______ ____
ROOT
ATOM      1  C   UNL     1      48.215  82.129  41.163  0.00  0.00    -0.021 A 
ATOM      2  C   UNL     1      47.889  83.014  40.154  0.00  0.00    -0.001 A 
ATOM      3  C   UNL     1      46.827  82.806  39.297  0.00  0.00    +0.042 A 
ATOM      4  C   UNL     1      46.033  81.684  39.416  0.00  0.00    +0.196 A 
ATOM      5  C   UNL     1      46.359  80.799  40.423  0.00  0.00    +0.042 A 
ATOM      6  C   UNL     1      47.420  81.006  41.281  0.00  0.00    -0.001 A 
ATOM      7  O   UNL     1      44.957  81.451  38.565  0.00  0.00    -0.287 OA
ENDROOT
BRANCH   1   8
ATOM      8  C   UNL     1      49.367  82.386  42.067  0.00  0.00    +0.045 C 
BRANCH   8  10
ATOM      9  C   UNL     1      48.414  84.501  42.834  0.00  0.00    +0.021 C 
ATOM     10  C   UNL     1      48.979  83.171  43.290  0.00  0.00    +0.096 C 
ATOM     11  N   UNL     1      50.231  83.486  43.991  0.00  0.00    -0.133 NA
ENDBRANCH   8  10
ENDBRANCH   1   8
TORSDOF 2
REMARK  Name = Hydroxyamphetamine_Hydrobromide
REMARK  2 active torsions:
REMARK  status: ('A' for Active; 'I' for Inactive)
REMARK    1  A    between atoms: C_2  and  C_3
REMARK    2  A    between atoms: C_3  and  C_4
REMARK                            x       y       z     vdW  Elec       q    Type
REMARK                         _______ _______ _______ _____ _____    ______ ____
ROOT
ATOM      1 BR   UNL     1      47.665  82.473  40.853  0.00  0.00    +0.000 Br
ENDROOT
TORSDOF 0
