REMARK  Name = Hydrochlorothiazide
REMARK  1 active torsions:
REMARK  status: ('A' for Active; 'I' for Inactive)
REMARK    1  A    between atoms: C_6  and  S_13
REMARK                            x       y       z     vdW  Elec       q    Type
REMARK                         _______ _______ _______ _____ _____    ______ ____
ROOT
ATOM      1  C   UNL     1      46.235  83.167  38.903  0.00  0.00    +0.227 C 
ATOM      2  N   UNL     1      45.767  81.935  38.324  0.00  0.00    -0.215 NA
ATOM      3  C   UNL     1      45.509  80.782  39.100  0.00  0.00    +0.087 A 
ATOM      4  C   UNL     1      44.516  79.866  38.766  0.00  0.00    +0.030 A 
ATOM      5  C   UNL     1      44.272  78.742  39.535  0.00  0.00    +0.078 A 
ATOM      6  C   UNL     1      45.006  78.484  40.672  0.00  0.00    +0.137 A 
ATOM      7  C   UNL     1      45.989  79.393  41.000  0.00  0.00    +0.042 A 
ATOM      8  C   UNL     1      46.237  80.514  40.237  0.00  0.00    +0.140 A 
ATOM      9  S   UNL     1      47.494  81.664  40.663  0.00  0.00    +0.080 S 
ATOM     10  O   UNL     1      47.412  82.007  42.123  0.00  0.00    -0.152 OA
ATOM     11  O   UNL     1      48.820  80.956  40.417  0.00  0.00    -0.152 OA
ATOM     12  N   UNL     1      47.449  83.030  39.650  0.00  0.00    -0.054 NA
ATOM     13 CL   UNL     1      43.018  77.658  39.044  0.00  0.00    -0.081 Cl
ENDROOT
BRANCH   6  14
ATOM     14  S   UNL     1      44.713  77.065  41.662  0.00  0.00    +0.094 S 
ATOM     15  O   UNL     1      45.559  77.086  42.901  0.00  0.00    -0.150 OA
ATOM     16  O   UNL     1      43.275  77.021  42.125  0.00  0.00    -0.150 OA
ATOM     17  N   UNL     1      45.053  75.616  40.794  0.00  0.00    +0.039 NA
ENDBRANCH   6  14
TORSDOF 1
