REMARK  Name = Hydrocortamate
REMARK  8 active torsions:
REMARK  status: ('A' for Active; 'I' for Inactive)
REMARK    1  A    between atoms: C_2  and  N_3
REMARK    2  A    between atoms: N_3  and  C_4
REMARK    3  A    between atoms: N_3  and  C_6
REMARK    4  A    between atoms: C_6  and  C_7
REMARK    5  A    between atoms: C_7  and  O_9
REMARK    6  A    between atoms: O_9  and  C_10
REMARK    7  A    between atoms: C_10  and  C_11
REMARK    8  A    between atoms: C_11  and  C_13
REMARK                            x       y       z     vdW  Elec       q    Type
REMARK                         _______ _______ _______ _____ _____    ______ ____
ROOT
ATOM      1  C   UNL     1      44.403  79.733  40.330  0.00  0.00    +0.181 C 
ATOM      2  C   UNL     1      44.577  78.509  41.187  0.00  0.00    +0.038 C 
ATOM      3  C   UNL     1      45.855  78.735  42.016  0.00  0.00    +0.003 C 
ATOM      4  C   UNL     1      46.110  80.185  41.779  0.00  0.00    +0.003 C 
ATOM      5  C   UNL     1      45.852  80.222  40.262  0.00  0.00    +0.035 C 
ATOM      6  C   UNL     1      46.003  81.593  39.724  0.00  0.00    +0.036 C 
ATOM      7  C   UNL     1      47.198  82.336  40.218  0.00  0.00    +0.152 C 
ATOM      8  C   UNL     1      48.099  81.590  41.138  0.00  0.00    +0.034 C 
ATOM      9  C   UNL     1      47.363  80.787  42.210  0.00  0.00    +0.003 C 
ATOM     10  C   UNL     1      48.333  79.903  42.926  0.00  0.00    +0.004 C 
ATOM     11  C   UNL     1      49.780  80.267  42.677  0.00  0.00    +0.022 C 
ATOM     12  C   UNL     1      50.022  81.715  42.553  0.00  0.00    -0.042 C 
ATOM     13  C   UNL     1      51.132  82.227  43.031  0.00  0.00    +0.029 C 
ATOM     14  C   UNL     1      51.290  83.669  42.865  0.00  0.00    +0.173 C 
ATOM     15  O   UNL     1      51.948  84.361  43.683  0.00  0.00    -0.291 OA
ATOM     16  C   UNL     1      50.676  84.350  41.722  0.00  0.00    +0.069 C 
ATOM     17  C   UNL     1      49.655  83.564  40.970  0.00  0.00    +0.012 C 
ATOM     18  C   UNL     1      48.984  82.551  41.878  0.00  0.00    +0.018 C 
ATOM     19  C   UNL     1      48.281  83.331  42.957  0.00  0.00    +0.004 C 
ATOM     20  O   UNL     1      47.978  82.667  39.084  0.00  0.00    -0.223 OA
ATOM     21  C   UNL     1      46.647  79.175  39.550  0.00  0.00    +0.003 C 
ATOM     22  O   UNL     1      43.662  80.639  41.130  0.00  0.00    -0.218 OA
ENDROOT
BRANCH   1  23
ATOM     23  C   UNL     1      43.782  79.522  39.031  0.00  0.00    +0.222 C 
ATOM     24  O   UNL     1      43.831  80.373  38.176  0.00  0.00    -0.290 OA
BRANCH  23  25
ATOM     25  C   UNL     1      43.081  78.250  38.752  0.00  0.00    +0.275 C 
BRANCH  25  26
ATOM     26  O   UNL     1      41.829  78.507  38.176  0.00  0.00    -0.439 OA
BRANCH  26  27
ATOM     27  C   UNL     1      41.018  77.484  37.750  0.00  0.00    +0.334 C 
ATOM     28  O   UNL     1      41.137  76.355  38.277  0.00  0.00    -0.249 OA
BRANCH  27  29
ATOM     29  C   UNL     1      40.022  77.713  36.686  0.00  0.00    +0.183 C 
BRANCH  29  30
ATOM     30  N   UNL     1      38.967  76.760  36.610  0.00  0.00    -0.263 NA
BRANCH  30  32
ATOM     31  C   UNL     1      38.619  74.370  36.024  0.00  0.00    +0.019 C 
ATOM     32  C   UNL     1      39.469  75.590  35.942  0.00  0.00    +0.073 C 
ENDBRANCH  30  32
BRANCH  30  33
ATOM     33  C   UNL     1      38.281  76.522  37.832  0.00  0.00    +0.073 C 
ATOM     34  C   UNL     1      37.369  77.608  38.316  0.00  0.00    +0.019 C 
ENDBRANCH  30  33
ENDBRANCH  29  30
ENDBRANCH  27  29
ENDBRANCH  26  27
ENDBRANCH  25  26
ENDBRANCH  23  25
ENDBRANCH   1  23
TORSDOF 8
