REMARK  Name = Hydroxyflutamide
REMARK  4 active torsions:
REMARK  status: ('A' for Active; 'I' for Inactive)
REMARK    1  A    between atoms: C_2  and  C_4
REMARK    2  A    between atoms: N_6  and  C_7
REMARK    3  A    between atoms: C_9  and  C_16
REMARK    4  A    between atoms: C_10  and  N_13
REMARK                            x       y       z     vdW  Elec       q    Type
REMARK                         _______ _______ _______ _____ _____    ______ ____
ROOT
ATOM      1  C   UNL     1      48.217  81.824  40.588  0.00  0.00    +0.073 A 
ATOM      2  C   UNL     1      47.927  82.614  41.672  0.00  0.00    +0.022 A 
ATOM      3  C   UNL     1      48.937  83.045  42.551  0.00  0.00    +0.095 A 
ATOM      4  C   UNL     1      50.245  82.704  42.372  0.00  0.00    +0.147 A 
ATOM      5  C   UNL     1      50.537  81.893  41.258  0.00  0.00    +0.025 A 
ATOM      6  C   UNL     1      49.540  81.479  40.408  0.00  0.00    +0.018 A 
ENDROOT
BRANCH   3   7
ATOM      7  C   UNL     1      48.552  83.880  43.728  0.00  0.00    +0.420 C 
ATOM      8  F   UNL     1      48.498  83.089  44.868  0.00  0.00    -0.166 F 
ATOM      9  F   UNL     1      47.352  84.472  43.488  0.00  0.00    -0.166 F 
ATOM     10  F   UNL     1      49.533  84.848  43.954  0.00  0.00    -0.166 F 
ENDBRANCH   3   7
BRANCH   1  13
ATOM     11  C   UNL     1      45.911  81.087  40.190  0.00  0.00    +0.273 C 
ATOM     12  O   UNL     1      45.728  81.256  41.436  0.00  0.00    -0.270 OA
ATOM     13  N   UNL     1      47.205  81.375  39.682  0.00  0.00    -0.177 NA
BRANCH  11  15
ATOM     14  C   UNL     1      43.532  80.527  40.159  0.00  0.00    +0.042 C 
ATOM     15  C   UNL     1      44.799  80.606  39.310  0.00  0.00    +0.196 C 
ATOM     16  C   UNL     1      45.138  79.259  38.723  0.00  0.00    +0.042 C 
ATOM     17  O   UNL     1      44.647  81.556  38.303  0.00  0.00    -0.216 OA
ENDBRANCH  11  15
ENDBRANCH   1  13
BRANCH   4  18
ATOM     18  N   UNL     1      51.310  83.134  43.210  0.00  0.00    +0.058 N 
ATOM     19  O   UNL     1      51.120  83.300  44.453  0.00  0.00    -0.126 OA
ATOM     20  O   UNL     1      52.586  83.401  42.801  0.00  0.00    -0.126 OA
ENDBRANCH   4  18
TORSDOF 4
