REMARK  Name = Hyoscyamine
REMARK  5 active torsions:
REMARK  status: ('A' for Active; 'I' for Inactive)
REMARK    1  A    between atoms: C_8  and  O_10
REMARK    2  A    between atoms: O_10  and  C_11
REMARK    3  A    between atoms: C_11  and  C_13
REMARK    4  A    between atoms: C_13  and  C_14
REMARK    5  A    between atoms: C_13  and  C_16
REMARK                            x       y       z     vdW  Elec       q    Type
REMARK                         _______ _______ _______ _____ _____    ______ ____
ROOT
ATOM      1  C   UNL     1      45.815  81.096  40.051  0.00  0.00    +0.323 C 
ATOM      2  O   UNL     1      44.734  81.700  40.196  0.00  0.00    -0.250 OA
ENDROOT
BRANCH   1   3
ATOM      3  O   UNL     1      45.837  79.720  40.125  0.00  0.00    -0.452 OA
BRANCH   3  11
ATOM      4  C   UNL     1      43.410  78.341  38.019  0.00  0.00    +0.090 C 
ATOM      5  N   UNL     1      44.161  78.545  39.218  0.00  0.00    -0.274 NA
ATOM      6  C   UNL     1      43.264  78.651  40.358  0.00  0.00    +0.061 C 
ATOM      7  C   UNL     1      42.844  77.224  40.678  0.00  0.00    +0.017 C 
ATOM      8  C   UNL     1      43.741  76.360  39.791  0.00  0.00    +0.017 C 
ATOM      9  C   UNL     1      44.901  77.334  39.552  0.00  0.00    +0.061 C 
ATOM     10  C   UNL     1      45.618  77.503  40.880  0.00  0.00    +0.060 C 
ATOM     11  C   UNL     1      45.512  78.980  41.282  0.00  0.00    +0.172 C 
ATOM     12  C   UNL     1      44.029  79.223  41.546  0.00  0.00    +0.060 C 
ENDBRANCH   3  11
ENDBRANCH   1   3
BRANCH   1  13
ATOM     13  C   UNL     1      47.089  81.797  39.799  0.00  0.00    +0.154 C 
BRANCH  13  14
ATOM     14  C   UNL     1      47.719  82.300  41.036  0.00  0.00    -0.009 A 
ATOM     15  C   UNL     1      48.982  81.900  41.416  0.00  0.00    -0.004 A 
ATOM     16  C   UNL     1      49.567  82.382  42.587  0.00  0.00    -0.000 A 
ATOM     17  C   UNL     1      48.911  83.275  43.408  0.00  0.00    -0.000 A 
ATOM     18  C   UNL     1      47.647  83.674  43.026  0.00  0.00    -0.000 A 
ATOM     19  C   UNL     1      47.063  83.192  41.855  0.00  0.00    -0.004 A 
ENDBRANCH  13  14
BRANCH  13  20
ATOM     20  C   UNL     1      46.775  82.939  38.834  0.00  0.00    +0.198 C 
ATOM     21  O   UNL     1      46.290  82.366  37.678  0.00  0.00    -0.219 OA
ENDBRANCH  13  20
ENDBRANCH   1  13
TORSDOF 5
