REMARK  Name = Ibandronate
REMARK  9 active torsions:
REMARK  status: ('A' for Active; 'I' for Inactive)
REMARK    1  A    between atoms: C_2  and  C_3
REMARK    2  A    between atoms: C_3  and  C_4
REMARK    3  A    between atoms: C_4  and  C_5
REMARK    4  A    between atoms: C_5  and  N_6
REMARK    5  A    between atoms: N_6  and  C_8
REMARK    6  A    between atoms: C_8  and  C_9
REMARK    7  A    between atoms: C_9  and  C_10
REMARK    8  A    between atoms: C_10  and  P_12
REMARK    9  A    between atoms: C_10  and  P_16
REMARK                            x       y       z     vdW  Elec       q    Type
REMARK                         _______ _______ _______ _____ _____    ______ ____
ROOT
ATOM      1  C   UNL     1      45.995  79.814  39.858  0.00  0.00    +0.319 C 
ATOM      2  O   UNL     1      47.208  79.563  39.214  0.00  0.00    -0.200 OA
ENDROOT
BRANCH   1   3
ATOM      3  P   UNL     1      45.345  78.305  40.567  0.00  0.00    +0.433 P 
ATOM      4  O   UNL     1      45.300  77.195  39.574  0.00  0.00    -0.250 OA
ATOM      5  O   UNL     1      43.781  78.609  41.131  0.00  0.00    -0.136 OA
ATOM      6  O   UNL     1      46.262  77.802  41.899  0.00  0.00    -0.136 OA
ENDBRANCH   1   3
BRANCH   1   7
ATOM      7  P   UNL     1      44.853  80.432  38.574  0.00  0.00    +0.433 P 
ATOM      8  O   UNL     1      43.488  80.721  39.172  0.00  0.00    -0.250 OA
ATOM      9  O   UNL     1      45.481  81.831  37.859  0.00  0.00    -0.136 OA
ATOM     10  O   UNL     1      44.649  79.268  37.361  0.00  0.00    -0.136 OA
ENDBRANCH   1   7
BRANCH   1  11
ATOM     11  C   UNL     1      46.255  80.894  40.880  0.00  0.00    +0.072 C 
BRANCH  11  12
ATOM     12  C   UNL     1      47.737  80.944  41.189  0.00  0.00    +0.076 C 
BRANCH  12  13
ATOM     13  N   UNL     1      48.267  82.224  40.786  0.00  0.00    -0.271 NA
ATOM     14  C   UNL     1      47.590  82.733  39.623  0.00  0.00    +0.090 C 
BRANCH  13  15
ATOM     15  C   UNL     1      48.434  83.161  41.840  0.00  0.00    +0.072 C 
BRANCH  15  16
ATOM     16  C   UNL     1      49.666  82.915  42.680  0.00  0.00    +0.017 C 
BRANCH  16  17
ATOM     17  C   UNL     1      49.826  83.981  43.740  0.00  0.00    +0.001 C 
BRANCH  17  19
ATOM     18  C   UNL     1      51.731  85.075  44.927  0.00  0.00    +0.000 C 
ATOM     19  C   UNL     1      51.056  83.770  44.585  0.00  0.00    +0.000 C 
ENDBRANCH  17  19
ENDBRANCH  16  17
ENDBRANCH  15  16
ENDBRANCH  13  15
ENDBRANCH  12  13
ENDBRANCH  11  12
ENDBRANCH   1  11
TORSDOF 9
