REMARK  Name = Ibrexafungerp
REMARK  9 active torsions:
REMARK  status: ('A' for Active; 'I' for Inactive)
REMARK    1  A    between atoms: C_2  and  C_4
REMARK    2  A    between atoms: C_4  and  C_6
REMARK    3  A    between atoms: C_23  and  C_24
REMARK    4  A    between atoms: C_29  and  N_40
REMARK    5  A    between atoms: C_30  and  O_31
REMARK    6  A    between atoms: O_31  and  C_32
REMARK    7  A    between atoms: C_32  and  C_33
REMARK    8  A    between atoms: C_33  and  C_35
REMARK    9  A    between atoms: C_41  and  C_45
REMARK                            x       y       z     vdW  Elec       q    Type
REMARK                         _______ _______ _______ _____ _____    ______ ____
ROOT
ATOM      1  C   UNL     1      49.425  82.488  42.620  0.00  0.00    +0.010 C 
ATOM      2  C   UNL     1      48.131  82.647  43.391  0.00  0.00    +0.001 C 
ATOM      3  C   UNL     1      47.191  81.522  43.158  0.00  0.00    +0.000 C 
ATOM      4  C   UNL     1      46.922  81.170  41.722  0.00  0.00    +0.004 C 
ATOM      5  C   UNL     1      46.557  79.746  41.609  0.00  0.00    +0.018 C 
ATOM      6  C   UNL     1      47.320  78.675  42.258  0.00  0.00    +0.004 C 
ATOM      7  C   UNL     1      46.383  77.448  42.344  0.00  0.00    +0.001 C 
ATOM      8  C   UNL     1      45.219  77.513  41.435  0.00  0.00    +0.011 C 
ATOM      9  C   UNL     1      44.656  76.127  41.200  0.00  0.00    +0.055 C 
ATOM     10  C   UNL     1      45.796  75.254  40.718  0.00  0.00    +0.144 C 
ATOM     11  O   UNL     1      46.743  75.992  40.014  0.00  0.00    -0.353 OA
ATOM     12  C   UNL     1      46.163  76.981  39.237  0.00  0.00    +0.146 C 
ATOM     13  C   UNL     1      45.500  78.075  40.053  0.00  0.00    +0.044 C 
ATOM     14  C   UNL     1      46.367  79.262  40.192  0.00  0.00    -0.047 C 
ATOM     15  C   UNL     1      47.023  79.901  39.267  0.00  0.00    -0.035 C 
ATOM     16  C   UNL     1      47.937  81.043  39.427  0.00  0.00    +0.026 C 
ATOM     17  C   UNL     1      47.833  81.779  40.739  0.00  0.00    +0.014 C 
ATOM     18  C   UNL     1      49.234  82.102  41.183  0.00  0.00    +0.104 C 
ATOM     19  C   UNL     1      47.210  83.130  40.289  0.00  0.00    +0.001 C 
ATOM     20  C   UNL     1      44.187  78.400  39.455  0.00  0.00    +0.033 C 
ATOM     21  C   UNL     1      43.150  77.353  39.569  0.00  0.00    +0.134 C 
ATOM     22  C   UNL     1      43.500  76.090  40.288  0.00  0.00    +0.140 C 
ATOM     23  C   UNL     1      44.302  75.599  42.588  0.00  0.00    +0.005 C 
ATOM     24  C   UNL     1      45.534  81.861  41.475  0.00  0.00    +0.000 C 
ATOM     25  C   UNL     1      50.177  81.389  43.386  0.00  0.00    +0.001 C 
ENDROOT
BRANCH  21  26
ATOM     26  N   UNL     1      42.615  77.080  38.223  0.00  0.00    -0.232 N 
ATOM     27  C   UNL     1      41.350  77.336  37.847  0.00  0.00    +0.161 A 
ATOM     28  N   UNL     1      41.268  76.948  36.554  0.00  0.00    -0.204 NA
ATOM     29  C   UNL     1      42.456  76.474  36.176  0.00  0.00    +0.221 A 
ATOM     30  N   UNL     1      43.280  76.563  37.222  0.00  0.00    -0.145 NA
BRANCH  27  31
ATOM     31  C   UNL     1      40.273  77.912  38.648  0.00  0.00    +0.039 A 
ATOM     32  C   UNL     1      39.097  78.300  38.053  0.00  0.00    +0.024 A 
ATOM     33  C   UNL     1      38.069  78.852  38.830  0.00  0.00    +0.099 A 
ATOM     34  N   UNL     1      38.246  78.996  40.154  0.00  0.00    -0.242 NA
ATOM     35  C   UNL     1      39.374  78.629  40.765  0.00  0.00    +0.099 A 
ATOM     36  C   UNL     1      40.399  78.081  40.005  0.00  0.00    +0.024 A 
ENDBRANCH  27  31
ENDBRANCH  21  26
BRANCH  18  37
ATOM     37  C   UNL     1      50.242  81.075  40.759  0.00  0.00    +0.364 C 
ATOM     38  O   UNL     1      50.320  79.919  41.306  0.00  0.00    -0.246 OA
ATOM     39  O   UNL     1      51.172  81.264  39.757  0.00  0.00    -0.246 OA
ENDBRANCH  18  37
BRANCH   1  40
ATOM     40  C   UNL     1      50.127  83.817  42.697  0.00  0.00    +0.001 C 
ATOM     41  C   UNL     1      51.510  83.791  43.244  0.00  0.00    +0.000 C 
BRANCH  40  43
ATOM     42  C   UNL     1      49.156  84.569  44.766  0.00  0.00    +0.000 C 
ATOM     43  C   UNL     1      49.374  84.954  43.290  0.00  0.00    +0.000 C 
ATOM     44  C   UNL     1      48.003  85.196  42.739  0.00  0.00    +0.000 C 
ENDBRANCH  40  43
ENDBRANCH   1  40
BRANCH  22  45
ATOM     45  O   UNL     1      42.380  75.585  40.961  0.00  0.00    -0.353 OA
BRANCH  45  46
ATOM     46  C   UNL     1      42.081  74.281  40.597  0.00  0.00    +0.160 C 
BRANCH  46  47
ATOM     47  C   UNL     1      41.623  73.393  41.693  0.00  0.00    +0.104 C 
ATOM     48  C   UNL     1      40.856  72.210  41.094  0.00  0.00    +0.022 C 
ATOM     49  N   UNL     1      42.788  72.866  42.404  0.00  0.00    -0.132 NA
BRANCH  47  50
ATOM     50  C   UNL     1      40.744  74.025  42.721  0.00  0.00    +0.017 C 
ATOM     51  C   UNL     1      39.468  74.606  42.212  0.00  0.00    +0.001 C 
ATOM     52  C   UNL     1      41.491  75.099  43.518  0.00  0.00    +0.001 C 
ATOM     53  C   UNL     1      40.419  72.917  43.742  0.00  0.00    +0.001 C 
ENDBRANCH  47  50
ENDBRANCH  46  47
ENDBRANCH  45  46
ENDBRANCH  22  45
TORSDOF 9
