REMARK  Name = Ibrutinib
REMARK  5 active torsions:
REMARK  status: ('A' for Active; 'I' for Inactive)
REMARK    1  A    between atoms: C_2  and  C_3
REMARK    2  A    between atoms: C_9  and  N_11
REMARK    3  A    between atoms: C_18  and  C_20
REMARK    4  A    between atoms: C_23  and  O_26
REMARK    5  A    between atoms: O_26  and  C_27
REMARK                            x       y       z     vdW  Elec       q    Type
REMARK                         _______ _______ _______ _____ _____    ______ ____
ROOT
ATOM      1  N   UNL     1      45.505  79.602  41.179  0.00  0.00    -0.234 N 
ATOM      2  C   UNL     1      45.474  80.393  40.077  0.00  0.00    +0.165 A 
ATOM      3  N   UNL     1      44.761  80.301  38.956  0.00  0.00    -0.205 NA
ATOM      4  C   UNL     1      44.900  81.229  37.996  0.00  0.00    +0.202 A 
ATOM      5  N   UNL     1      45.748  82.272  38.125  0.00  0.00    -0.206 NA
ATOM      6  C   UNL     1      46.492  82.416  39.235  0.00  0.00    +0.176 A 
ATOM      7  C   UNL     1      46.355  81.463  40.226  0.00  0.00    +0.090 A 
ATOM      8  C   UNL     1      46.910  81.265  41.467  0.00  0.00    +0.107 A 
ATOM      9  N   UNL     1      46.374  80.151  41.993  0.00  0.00    -0.168 NA
ATOM     10  N   UNL     1      47.366  83.525  39.386  0.00  0.00    -0.107 NA
ENDROOT
BRANCH   1  17
ATOM     11  C   UNL     1      44.324  75.530  43.510  0.00  0.00    +0.249 C 
ATOM     12  O   UNL     1      43.228  75.902  44.061  0.00  0.00    -0.270 OA
ATOM     13  N   UNL     1      45.097  76.434  42.767  0.00  0.00    -0.274 N 
ATOM     14  C   UNL     1      46.178  76.027  41.926  0.00  0.00    +0.094 C 
ATOM     15  C   UNL     1      45.703  76.202  40.501  0.00  0.00    +0.024 C 
ATOM     16  C   UNL     1      44.858  77.396  40.285  0.00  0.00    +0.028 C 
ATOM     17  C   UNL     1      44.708  78.380  41.383  0.00  0.00    +0.127 C 
ATOM     18  C   UNL     1      44.854  77.866  42.780  0.00  0.00    +0.118 C 
BRANCH  11  20
ATOM     19  C   UNL     1      45.179  73.704  44.851  0.00  0.00    +0.005 C 
ATOM     20  C   UNL     1      44.690  74.147  43.706  0.00  0.00    +0.058 C 
ENDBRANCH  11  20
ENDBRANCH   1  17
BRANCH   8  21
ATOM     21  C   UNL     1      47.900  82.156  42.094  0.00  0.00    +0.020 A 
ATOM     22  C   UNL     1      47.550  83.321  42.730  0.00  0.00    +0.005 A 
ATOM     23  C   UNL     1      48.504  84.131  43.341  0.00  0.00    +0.038 A 
ATOM     24  C   UNL     1      49.828  83.778  43.319  0.00  0.00    +0.145 A 
ATOM     25  C   UNL     1      50.180  82.613  42.682  0.00  0.00    +0.038 A 
ATOM     26  C   UNL     1      49.244  81.811  42.079  0.00  0.00    +0.005 A 
BRANCH  24  27
ATOM     27  O   UNL     1      50.810  84.547  43.908  0.00  0.00    -0.453 OA
BRANCH  27  28
ATOM     28  C   UNL     1      51.364  84.115  45.096  0.00  0.00    +0.145 A 
ATOM     29  C   UNL     1      50.731  83.137  45.825  0.00  0.00    +0.037 A 
ATOM     30  C   UNL     1      51.280  82.702  47.013  0.00  0.00    +0.003 A 
ATOM     31  C   UNL     1      52.461  83.276  47.426  0.00  0.00    +0.000 A 
ATOM     32  C   UNL     1      53.103  84.255  46.705  0.00  0.00    +0.003 A 
ATOM     33  C   UNL     1      52.539  84.673  45.527  0.00  0.00    +0.037 A 
ENDBRANCH  27  28
ENDBRANCH  24  27
ENDBRANCH   8  21
TORSDOF 5
