REMARK  Name = Ibutilide
REMARK  14 active torsions:
REMARK  status: ('A' for Active; 'I' for Inactive)
REMARK    1  A    between atoms: C_2  and  C_3
REMARK    2  A    between atoms: C_3  and  C_4
REMARK    3  A    between atoms: C_4  and  C_5
REMARK    4  A    between atoms: C_5  and  C_6
REMARK    5  A    between atoms: C_6  and  C_7
REMARK    6  A    between atoms: C_7  and  N_8
REMARK    7  A    between atoms: N_8  and  C_9
REMARK    8  A    between atoms: N_8  and  C_11
REMARK    9  A    between atoms: C_11  and  C_12
REMARK   10  A    between atoms: C_12  and  C_13
REMARK   11  A    between atoms: C_13  and  C_14
REMARK   12  A    between atoms: C_14  and  C_15
REMARK   13  A    between atoms: C_18  and  N_21
REMARK   14  A    between atoms: N_21  and  S_22
REMARK                            x       y       z     vdW  Elec       q    Type
REMARK                         _______ _______ _______ _____ _____    ______ ____
ROOT
ATOM      1  C   UNL     1      44.978  79.837  38.875  0.00  0.00    +0.039 C 
ENDROOT
BRANCH   1   2
ATOM      2  C   UNL     1      45.186  81.321  39.183  0.00  0.00    +0.174 C 
ATOM      3  O   UNL     1      45.389  82.062  38.022  0.00  0.00    -0.218 OA
BRANCH   2   4
ATOM      4  C   UNL     1      46.386  81.443  40.013  0.00  0.00    +0.008 A 
ATOM      5  C   UNL     1      47.298  82.413  39.719  0.00  0.00    -0.000 A 
ATOM      6  C   UNL     1      48.445  82.566  40.479  0.00  0.00    +0.018 A 
ATOM      7  C   UNL     1      48.684  81.739  41.544  0.00  0.00    +0.091 A 
ATOM      8  C   UNL     1      47.731  80.748  41.826  0.00  0.00    +0.018 A 
ATOM      9  C   UNL     1      46.603  80.605  41.072  0.00  0.00    -0.000 A 
BRANCH   7  10
ATOM     10  N   UNL     1      49.826  81.834  42.375  0.00  0.00    -0.101 NA
BRANCH  10  11
ATOM     11  S   UNL     1      50.744  83.262  42.473  0.00  0.00    +0.075 S 
ATOM     12  O   UNL     1      51.806  83.058  43.523  0.00  0.00    -0.153 OA
ATOM     13  O   UNL     1      51.377  83.511  41.123  0.00  0.00    -0.153 OA
ATOM     14  C   UNL     1      49.785  84.679  42.889  0.00  0.00    +0.202 C 
ENDBRANCH  10  11
ENDBRANCH   7  10
ENDBRANCH   2   4
ENDBRANCH   1   2
BRANCH   1  15
ATOM     15  C   UNL     1      43.681  79.358  39.531  0.00  0.00    +0.020 C 
BRANCH  15  16
ATOM     16  C   UNL     1      42.783  78.827  38.420  0.00  0.00    +0.072 C 
BRANCH  16  17
ATOM     17  N   UNL     1      42.181  77.620  38.896  0.00  0.00    -0.273 NA
BRANCH  17  18
ATOM     18  C   UNL     1      41.529  76.868  37.873  0.00  0.00    +0.072 C 
ATOM     19  C   UNL     1      40.389  77.655  37.255  0.00  0.00    +0.019 C 
ENDBRANCH  17  18
BRANCH  17  20
ATOM     20  C   UNL     1      43.060  76.866  39.725  0.00  0.00    +0.072 C 
BRANCH  20  21
ATOM     21  C   UNL     1      42.369  76.519  41.048  0.00  0.00    +0.017 C 
BRANCH  21  22
ATOM     22  C   UNL     1      43.463  75.939  41.922  0.00  0.00    +0.001 C 
BRANCH  22  23
ATOM     23  C   UNL     1      43.619  76.800  43.134  0.00  0.00    +0.000 C 
BRANCH  23  24
ATOM     24  C   UNL     1      44.546  76.156  44.124  0.00  0.00    +0.000 C 
BRANCH  24  26
ATOM     25  C   UNL     1      45.638  76.396  46.294  0.00  0.00    +0.000 C 
ATOM     26  C   UNL     1      44.704  77.071  45.315  0.00  0.00    +0.000 C 
ENDBRANCH  24  26
ENDBRANCH  23  24
ENDBRANCH  22  23
ENDBRANCH  21  22
ENDBRANCH  20  21
ENDBRANCH  17  20
ENDBRANCH  16  17
ENDBRANCH  15  16
ENDBRANCH   1  15
TORSDOF 14
