REMARK  Name = Ibutamoren
REMARK  8 active torsions:
REMARK  status: ('A' for Active; 'I' for Inactive)
REMARK    1  A    between atoms: C_2  and  C_4
REMARK    2  A    between atoms: N_6  and  C_7
REMARK    3  A    between atoms: C_7  and  C_8
REMARK    4  A    between atoms: C_7  and  C_17
REMARK    5  A    between atoms: C_8  and  O_9
REMARK    6  A    between atoms: O_9  and  C_10
REMARK    7  A    between atoms: C_10  and  C_11
REMARK    8  A    between atoms: N_26  and  S_33
REMARK                            x       y       z     vdW  Elec       q    Type
REMARK                         _______ _______ _______ _____ _____    ______ ____
ROOT
ATOM      1  C   UNL     1      45.045  80.378  38.932  0.00  0.00    +0.248 C 
ATOM      2  O   UNL     1      44.348  81.344  38.452  0.00  0.00    -0.273 OA
ATOM      3  N   UNL     1      46.151  80.736  39.689  0.00  0.00    -0.278 N 
ATOM      4  C   UNL     1      46.672  82.101  39.607  0.00  0.00    +0.094 C 
ATOM      5  C   UNL     1      48.093  82.070  40.116  0.00  0.00    +0.027 C 
ATOM      6  C   UNL     1      48.061  81.710  41.583  0.00  0.00    +0.043 C 
ATOM      7  C   UNL     1      47.007  80.680  41.897  0.00  0.00    +0.027 C 
ATOM      8  C   UNL     1      46.809  79.847  40.603  0.00  0.00    +0.094 C 
ATOM      9  C   UNL     1      49.410  81.109  41.986  0.00  0.00    +0.120 C 
ATOM     10  N   UNL     1      50.163  82.295  42.419  0.00  0.00    -0.194 N 
ATOM     11  C   UNL     1      49.206  83.203  42.935  0.00  0.00    +0.064 A 
ATOM     12  C   UNL     1      49.389  84.290  43.801  0.00  0.00    +0.016 A 
ATOM     13  C   UNL     1      48.328  85.074  44.200  0.00  0.00    +0.001 A 
ATOM     14  C   UNL     1      47.079  84.750  43.715  0.00  0.00    -0.000 A 
ATOM     15  C   UNL     1      46.893  83.681  42.861  0.00  0.00    -0.003 A 
ATOM     16  C   UNL     1      47.951  82.898  42.463  0.00  0.00    -0.006 A 
ENDROOT
BRANCH  10  17
ATOM     17  S   UNL     1      51.853  82.564  42.330  0.00  0.00    +0.059 S 
ATOM     18  O   UNL     1      52.635  81.352  42.734  0.00  0.00    -0.154 OA
ATOM     19  O   UNL     1      52.178  83.701  43.273  0.00  0.00    -0.154 OA
ATOM     20  C   UNL     1      52.377  83.077  40.713  0.00  0.00    +0.200 C 
ENDBRANCH  10  17
BRANCH   1  21
ATOM     21  C   UNL     1      44.658  78.989  38.678  0.00  0.00    +0.201 C 
BRANCH  21  24
ATOM     22  C   UNL     1      45.150  77.626  40.734  0.00  0.00    +0.257 C 
ATOM     23  O   UNL     1      46.391  77.734  40.595  0.00  0.00    -0.272 OA
ATOM     24  N   UNL     1      44.272  78.290  39.884  0.00  0.00    -0.194 NA
BRANCH  22  26
ATOM     25  C   UNL     1      45.506  75.486  41.777  0.00  0.00    +0.028 C 
ATOM     26  C   UNL     1      44.664  76.747  41.861  0.00  0.00    +0.147 C 
ATOM     27  C   UNL     1      44.820  77.426  43.194  0.00  0.00    +0.028 C 
ATOM     28  N   UNL     1      43.291  76.395  41.621  0.00  0.00    -0.125 NA
ENDBRANCH  22  26
ENDBRANCH  21  24
BRANCH  21  29
ATOM     29  C   UNL     1      43.429  78.955  37.790  0.00  0.00    +0.173 C 
BRANCH  29  30
ATOM     30  O   UNL     1      42.225  79.045  38.459  0.00  0.00    -0.347 OA
BRANCH  30  31
ATOM     31  C   UNL     1      41.225  78.904  37.492  0.00  0.00    +0.169 C 
BRANCH  31  32
ATOM     32  C   UNL     1      40.522  77.626  37.586  0.00  0.00    +0.007 A 
ATOM     33  C   UNL     1      39.917  77.130  38.718  0.00  0.00    -0.002 A 
ATOM     34  C   UNL     1      39.257  75.900  38.740  0.00  0.00    -0.000 A 
ATOM     35  C   UNL     1      39.199  75.150  37.607  0.00  0.00    -0.000 A 
ATOM     36  C   UNL     1      39.793  75.612  36.453  0.00  0.00    -0.000 A 
ATOM     37  C   UNL     1      40.444  76.829  36.438  0.00  0.00    -0.002 A 
ENDBRANCH  31  32
ENDBRANCH  30  31
ENDBRANCH  29  30
ENDBRANCH  21  29
ENDBRANCH   1  21
TORSDOF 8
