REMARK  Name = Icatibant
REMARK  30 active torsions:
REMARK  status: ('A' for Active; 'I' for Inactive)
REMARK    1  A    between atoms: C_8  and  C_79
REMARK    2  A    between atoms: C_10  and  C_12
REMARK    3  A    between atoms: C_22  and  CA_24
REMARK    4  A    between atoms: CA_24  and  CB_25
REMARK    5  A    between atoms: CA_24  and  N_27
REMARK    6  A    between atoms: C_28  and  C_30
REMARK    7  A    between atoms: C_30  and  C_31
REMARK    8  A    between atoms: C_30  and  N_37
REMARK    9  A    between atoms: C_31  and  C_32
REMARK   10  A    between atoms: C_38  and  CA_40
REMARK   11  A    between atoms: CA_40  and  N_41
REMARK   12  A    between atoms: C_42  and  CA_44
REMARK   13  A    between atoms: C_49  and  CA_51
REMARK   14  A    between atoms: C_56  and  CA_58
REMARK   15  A    between atoms: CA_58  and  CB_59
REMARK   16  A    between atoms: CA_58  and  N_66
REMARK   17  A    between atoms: CB_59  and  CG_60
REMARK   18  A    between atoms: CG_60  and  CD_61
REMARK   19  A    between atoms: CD_61  and  NE_62
REMARK   20  A    between atoms: C_67  and  CA_69
REMARK   21  A    between atoms: CA_69  and  CB_70
REMARK   22  A    between atoms: CB_70  and  CG_71
REMARK   23  A    between atoms: CG_71  and  CD_72
REMARK   24  A    between atoms: CD_72  and  NE_73
REMARK   25  A    between atoms: N_81  and  CA_82
REMARK   26  A    between atoms: CA_82  and  CB_83
REMARK   27  A    between atoms: CA_82  and  C_90
REMARK   28  A    between atoms: CB_83  and  CG_84
REMARK   29  A    between atoms: CG_84  and  CD_85
REMARK   30  A    between atoms: CD_85  and  NE_86
REMARK                            x       y       z     vdW  Elec       q    Type
REMARK                         _______ _______ _______ _____ _____    ______ ____
ROOT
ATOM      1  C   UNK A   6      44.785  78.467  40.500  0.00  0.00    +0.178 C 
ENDROOT
BRANCH   1   2
ATOM      2  N   UNK A   6      43.510  78.562  39.822  0.00  0.00    -0.196 NA
ATOM      3  C   GLY A   5      43.034  77.705  38.818  0.00  0.00    +0.264 C 
ATOM      4  O   GLY A   5      43.801  76.745  38.460  0.00  0.00    -0.271 OA
BRANCH   3   5
ATOM      5  CA  GLY A   5      41.696  77.842  38.137  0.00  0.00    +0.201 C 
BRANCH   5   6
ATOM      6  N   GLY A   5      40.846  76.798  38.750  0.00  0.00    -0.194 NA
ATOM      7  C   HYP A   4      39.511  76.644  38.355  0.00  0.00    +0.260 C 
ATOM      8  O   HYP A   4      39.163  77.462  37.390  0.00  0.00    -0.272 OA
BRANCH   7   9
ATOM      9  CA  HYP A   4      38.497  75.761  38.813  0.00  0.00    +0.156 C 
ATOM     10  CB  HYP A   4      38.551  75.540  40.340  0.00  0.00    +0.064 C 
ATOM     11  CG  HYP A   4      37.477  74.447  40.491  0.00  0.00    +0.174 C 
ATOM     12  CD  HYP A   4      37.096  74.031  39.071  0.00  0.00    +0.127 C 
ATOM     13  N   HYP A   4      38.369  74.413  38.398  0.00  0.00    -0.269 N 
ATOM     14  C   PRO A   3      39.117  73.523  37.626  0.00  0.00    +0.244 C 
ATOM     15  O   PRO A   3      39.413  72.404  38.148  0.00  0.00    -0.273 OA
ATOM     16  OD  HYP A   4      37.941  73.381  41.243  0.00  0.00    -0.221 OA
BRANCH  14  17
ATOM     17  CA  PRO A   3      39.582  73.774  36.278  0.00  0.00    +0.152 C 
ATOM     18  CB  PRO A   3      40.637  72.724  35.855  0.00  0.00    +0.031 C 
ATOM     19  CG  PRO A   3      40.680  72.901  34.356  0.00  0.00    +0.024 C 
ATOM     20  CD  PRO A   3      39.616  73.971  34.067  0.00  0.00    +0.094 C 
ATOM     21  N   PRO A   3      38.667  73.669  35.168  0.00  0.00    -0.272 N 
ATOM     22  C   ARG A   2      37.307  73.424  35.151  0.00  0.00    +0.246 C 
ATOM     23  O   ARG A   2      36.633  73.543  36.222  0.00  0.00    -0.273 OA
BRANCH  22  24
ATOM     24  CA  ARG A   2      36.423  73.011  33.991  0.00  0.00    +0.171 C 
BRANCH  24  25
ATOM     25  N   ARG A   2      35.592  74.036  33.507  0.00  0.00    -0.197 NA
ATOM     26  C   ARG A   1      34.193  73.775  33.210  0.00  0.00    +0.259 C 
ATOM     27  O   ARG A   1      33.817  72.595  33.258  0.00  0.00    -0.272 OA
BRANCH  26  28
ATOM     28  CA  ARG A   1      33.278  74.856  32.878  0.00  0.00    +0.169 C 
ATOM     29  N   ARG A   1      31.947  74.290  32.494  0.00  0.00    -0.123 NA
BRANCH  28  30
ATOM     30  CB  ARG A   1      33.702  75.601  31.603  0.00  0.00    +0.030 C 
BRANCH  30  31
ATOM     31  CG  ARG A   1      33.244  74.769  30.452  0.00  0.00    +0.028 C 
BRANCH  31  32
ATOM     32  CD  ARG A   1      33.536  75.308  29.097  0.00  0.00    +0.129 C 
BRANCH  32  33
ATOM     33  NE  ARG A   1      34.938  75.296  28.790  0.00  0.00    -0.234 NA
ATOM     34  CZ  ARG A   1      35.465  75.685  27.703  0.00  0.00    +0.284 C 
ATOM     35  NH1 ARG A   1      34.567  76.290  26.751  0.00  0.00    -0.104 NA
ATOM     36  NH2 ARG A   1      36.838  75.532  27.450  0.00  0.00    -0.104 NA
ENDBRANCH  32  33
ENDBRANCH  31  32
ENDBRANCH  30  31
ENDBRANCH  28  30
ENDBRANCH  26  28
ENDBRANCH  24  25
BRANCH  24  37
ATOM     37  CB  ARG A   2      37.219  72.145  33.144  0.00  0.00    +0.033 C 
BRANCH  37  38
ATOM     38  CG  ARG A   2      37.063  71.879  31.731  0.00  0.00    +0.029 C 
BRANCH  38  39
ATOM     39  CD  ARG A   2      37.990  71.081  30.933  0.00  0.00    +0.129 C 
BRANCH  39  40
ATOM     40  NE  ARG A   2      37.766  70.808  29.558  0.00  0.00    -0.234 NA
ATOM     41  CZ  ARG A   2      38.412  71.492  28.642  0.00  0.00    +0.284 C 
ATOM     42  NH1 ARG A   2      39.809  71.412  28.481  0.00  0.00    -0.104 NA
ATOM     43  NH2 ARG A   2      37.684  72.330  27.784  0.00  0.00    -0.104 NA
ENDBRANCH  39  40
ENDBRANCH  38  39
ENDBRANCH  37  38
ENDBRANCH  24  37
ENDBRANCH  22  24
ENDBRANCH  14  17
ENDBRANCH   7   9
ENDBRANCH   5   6
ENDBRANCH   3   5
ENDBRANCH   1   2
BRANCH   1  45
ATOM     44  N   SER A   7      46.823  79.829  39.772  0.00  0.00    -0.194 NA
ATOM     45  C   UNK A   6      45.577  79.751  40.405  0.00  0.00    +0.262 C 
ATOM     46  O   UNK A   6      45.078  80.782  40.930  0.00  0.00    -0.271 OA
BRANCH  44  47
ATOM     47  CA  SER A   7      47.662  81.094  39.835  0.00  0.00    +0.204 C 
BRANCH  47  58
ATOM     48  C   UNK A   8      49.505  81.586  43.365  0.00  0.00    +0.157 C 
ATOM     49  C   UNK A   8      50.818  82.294  42.927  0.00  0.00    +0.055 C 
ATOM     50  C   UNK A   8      50.394  83.693  42.676  0.00  0.00    -0.022 A 
ATOM     51  C   UNK A   8      51.376  84.678  42.768  0.00  0.00    -0.004 A 
ATOM     52  C   UNK A   8      51.058  85.996  42.547  0.00  0.00    -0.000 A 
ATOM     53  C   UNK A   8      49.767  86.374  42.233  0.00  0.00    -0.000 A 
ATOM     54  C   UNK A   8      48.790  85.377  42.144  0.00  0.00    -0.003 A 
ATOM     55  C   UNK A   8      49.080  84.047  42.359  0.00  0.00    -0.006 A 
ATOM     56  C   UNK A   8      47.974  83.063  42.236  0.00  0.00    +0.120 C 
ATOM     57  N   UNK A   8      48.703  81.702  42.183  0.00  0.00    -0.267 N 
ATOM     58  C   SER A   7      48.505  81.011  41.023  0.00  0.00    +0.249 C 
ATOM     59  O   SER A   7      49.302  79.930  40.935  0.00  0.00    -0.273 OA
BRANCH  48  69
ATOM     60  C   UNK A   9      52.151  78.362  39.982  0.00  0.00    +0.000 C 
ATOM     61  C   UNK A   9      51.249  79.562  40.108  0.00  0.00    +0.002 C 
ATOM     62  C   UNK A   9      50.502  79.536  41.383  0.00  0.00    +0.020 C 
ATOM     63  C   UNK A   9      50.977  78.734  42.515  0.00  0.00    +0.076 C 
ATOM     64  C   UNK A   9      52.399  78.292  42.442  0.00  0.00    +0.020 C 
ATOM     65  C   UNK A   9      53.104  78.492  41.171  0.00  0.00    +0.002 C 
ATOM     66  C   UNK A   9      53.038  79.174  43.531  0.00  0.00    +0.031 C 
ATOM     67  C   UNK A   9      51.898  79.013  44.579  0.00  0.00    +0.154 C 
ATOM     68  N   UNK A   9      50.803  79.446  43.851  0.00  0.00    -0.273 N 
ATOM     69  C   UNK A   8      49.730  80.317  43.988  0.00  0.00    +0.244 C 
ATOM     70  O   UNK A   8      48.800  79.934  44.787  0.00  0.00    -0.273 OA
BRANCH  67  71
ATOM     71  C   UNK A   9      52.286  79.278  45.919  0.00  0.00    +0.260 C 
ATOM     72  O   UNK A   9      52.106  80.348  46.532  0.00  0.00    -0.272 OA
ATOM     73  N   ARG A  10      52.966  78.198  46.685  0.00  0.00    -0.194 NA
BRANCH  73  74
ATOM     74  CA  ARG A  10      53.277  78.488  48.034  0.00  0.00    +0.198 C 
BRANCH  74  75
ATOM     75  C   ARG A  10      53.857  77.235  48.681  0.00  0.00    +0.384 C 
ATOM     76  O   ARG A  10      53.483  76.872  49.816  0.00  0.00    -0.244 OA
ATOM     77  OXT ARG A  10      54.802  76.507  47.996  0.00  0.00    -0.244 OA
ENDBRANCH  74  75
BRANCH  74  78
ATOM     78  CB  ARG A  10      54.137  79.650  48.349  0.00  0.00    +0.035 C 
BRANCH  78  79
ATOM     79  CG  ARG A  10      53.582  80.980  48.564  0.00  0.00    +0.029 C 
BRANCH  79  80
ATOM     80  CD  ARG A  10      54.454  82.140  48.885  0.00  0.00    +0.129 C 
BRANCH  80  81
ATOM     81  NE  ARG A  10      54.040  82.672  50.199  0.00  0.00    -0.234 NA
ATOM     82  CZ  ARG A  10      54.864  82.999  51.087  0.00  0.00    +0.284 C 
ATOM     83  NH1 ARG A  10      56.260  82.932  50.729  0.00  0.00    -0.104 NA
ATOM     84  NH2 ARG A  10      54.445  83.420  52.367  0.00  0.00    -0.104 NA
ENDBRANCH  80  81
ENDBRANCH  79  80
ENDBRANCH  78  79
ENDBRANCH  74  78
ENDBRANCH  73  74
ENDBRANCH  67  71
ENDBRANCH  48  69
ENDBRANCH  47  58
BRANCH  47  85
ATOM     85  CB  SER A   7      48.457  80.995  38.525  0.00  0.00    +0.213 C 
ATOM     86  OG  SER A   7      49.193  82.184  38.344  0.00  0.00    -0.218 OA
ENDBRANCH  47  85
ENDBRANCH  44  47
ENDBRANCH   1  45
BRANCH   1  87
ATOM     87  C   UNK A   6      44.572  78.014  41.882  0.00  0.00    +0.064 C 
BRANCH  87  88
ATOM     88  C   UNK A   6      44.275  76.557  42.049  0.00  0.00    +0.010 A 
ATOM     89  C   UNK A   6      45.149  75.522  41.843  0.00  0.00    +0.003 A 
ATOM     90  C   UNK A   6      44.691  74.276  42.037  0.00  0.00    +0.007 A 
ATOM     91  C   UNK A   6      43.385  74.139  42.424  0.00  0.00    +0.035 A 
ATOM     92  S   UNK A   6      42.842  75.749  42.507  0.00  0.00    -0.091 S 
ENDBRANCH  87  88
ENDBRANCH   1  87
TORSDOF 30
