REMARK  Name = Icosapent
REMARK  13 active torsions:
REMARK  status: ('A' for Active; 'I' for Inactive)
REMARK    1  A    between atoms: C_2  and  C_3
REMARK    2  A    between atoms: C_4  and  C_5
REMARK    3  A    between atoms: C_5  and  C_6
REMARK    4  A    between atoms: C_7  and  C_8
REMARK    5  A    between atoms: C_8  and  C_9
REMARK    6  A    between atoms: C_10  and  C_11
REMARK    7  A    between atoms: C_11  and  C_12
REMARK    8  A    between atoms: C_13  and  C_14
REMARK    9  A    between atoms: C_14  and  C_15
REMARK   10  A    between atoms: C_16  and  C_17
REMARK   11  A    between atoms: C_17  and  C_18
REMARK   12  A    between atoms: C_18  and  C_19
REMARK   13  A    between atoms: C_19  and  C_20
REMARK                            x       y       z     vdW  Elec       q    Type
REMARK                         _______ _______ _______ _____ _____    ______ ____
ROOT
ATOM      1  C   UNL     1      45.022  80.142  39.453  0.00  0.00    +0.051 C 
ENDROOT
BRANCH   1   3
ATOM      2  C   UNL     1      42.832  79.055  39.189  0.00  0.00    -0.026 C 
ATOM      3  C   UNL     1      44.130  78.928  39.381  0.00  0.00    -0.026 C 
BRANCH   2   4
ATOM      4  C   UNL     1      42.218  78.583  37.923  0.00  0.00    +0.051 C 
BRANCH   4   6
ATOM      5  C   UNL     1      40.163  77.320  37.388  0.00  0.00    -0.026 C 
ATOM      6  C   UNL     1      41.123  77.652  38.212  0.00  0.00    -0.026 C 
BRANCH   5   7
ATOM      7  C   UNL     1      40.073  76.049  36.670  0.00  0.00    +0.051 C 
BRANCH   7   9
ATOM      8  C   UNL     1      38.204  74.514  36.108  0.00  0.00    -0.030 C 
ATOM      9  C   UNL     1      38.638  75.602  36.720  0.00  0.00    -0.026 C 
BRANCH   8  11
ATOM     10  C   UNL     1      36.434  73.771  37.660  0.00  0.00    +0.005 C 
ATOM     11  C   UNL     1      36.807  74.058  36.235  0.00  0.00    +0.026 C 
ENDBRANCH   8  11
ENDBRANCH   7   9
ENDBRANCH   5   7
ENDBRANCH   4   6
ENDBRANCH   2   4
ENDBRANCH   1   3
BRANCH   1  12
ATOM     12  C   UNL     1      45.658  80.153  40.788  0.00  0.00    -0.026 C 
ATOM     13  C   UNL     1      46.723  80.900  41.002  0.00  0.00    -0.026 C 
BRANCH  13  14
ATOM     14  C   UNL     1      47.253  81.054  42.377  0.00  0.00    +0.051 C 
BRANCH  14  15
ATOM     15  C   UNL     1      48.465  81.889  42.428  0.00  0.00    -0.026 C 
ATOM     16  C   UNL     1      48.390  83.177  42.597  0.00  0.00    -0.030 C 
BRANCH  16  17
ATOM     17  C   UNL     1      49.547  84.087  42.780  0.00  0.00    +0.026 C 
BRANCH  17  18
ATOM     18  C   UNL     1      50.528  83.597  43.801  0.00  0.00    +0.016 C 
BRANCH  18  19
ATOM     19  C   UNL     1      51.210  82.318  43.426  0.00  0.00    +0.114 C 
BRANCH  19  20
ATOM     20  C   UNL     1      52.259  82.474  42.413  0.00  0.00    +0.365 C 
ATOM     21  O   UNL     1      52.732  81.557  41.695  0.00  0.00    -0.246 OA
ATOM     22  O   UNL     1      52.783  83.746  42.224  0.00  0.00    -0.246 OA
ENDBRANCH  19  20
ENDBRANCH  18  19
ENDBRANCH  17  18
ENDBRANCH  16  17
ENDBRANCH  14  15
ENDBRANCH  13  14
ENDBRANCH   1  12
TORSDOF 13
