REMARK  Name = Idarubicin
REMARK  3 active torsions:
REMARK  status: ('A' for Active; 'I' for Inactive)
REMARK    1  A    between atoms: C_6  and  O_8
REMARK    2  A    between atoms: O_8  and  C_9
REMARK    3  A    between atoms: C_11  and  C_31
REMARK                            x       y       z     vdW  Elec       q    Type
REMARK                         _______ _______ _______ _____ _____    ______ ____
ROOT
ATOM      1  C   UNL     1      49.323  81.261  42.840  0.00  0.00    +0.146 C 
ATOM      2  C   UNL     1      49.795  82.663  42.998  0.00  0.00    +0.072 C 
ATOM      3  C   UNL     1      49.999  83.424  41.719  0.00  0.00    +0.184 C 
ATOM      4  C   UNL     1      48.818  83.362  40.785  0.00  0.00    +0.067 C 
ATOM      5  C   UNL     1      48.028  82.125  40.891  0.00  0.00    +0.021 A 
ATOM      6  C   UNL     1      48.252  81.148  41.838  0.00  0.00    +0.043 A 
ATOM      7  C   UNL     1      47.430  80.041  41.818  0.00  0.00    +0.197 A 
ATOM      8  C   UNL     1      46.406  79.893  40.888  0.00  0.00    +0.084 A 
ATOM      9  C   UNL     1      46.201  80.880  39.954  0.00  0.00    +0.084 A 
ATOM     10  C   UNL     1      47.008  81.974  39.968  0.00  0.00    +0.195 A 
ATOM     11  O   UNL     1      46.762  82.957  38.995  0.00  0.00    -0.287 OA
ATOM     12  C   UNL     1      45.114  80.700  38.982  0.00  0.00    +0.199 C 
ATOM     13  O   UNL     1      44.945  81.610  38.142  0.00  0.00    -0.286 OA
ATOM     14  C   UNL     1      44.251  79.526  38.969  0.00  0.00    +0.042 A 
ATOM     15  C   UNL     1      43.232  79.386  38.037  0.00  0.00    +0.003 A 
ATOM     16  C   UNL     1      42.428  78.271  38.041  0.00  0.00    +0.000 A 
ATOM     17  C   UNL     1      42.669  77.304  38.997  0.00  0.00    +0.000 A 
ATOM     18  C   UNL     1      43.672  77.425  39.926  0.00  0.00    +0.003 A 
ATOM     19  C   UNL     1      44.476  78.542  39.921  0.00  0.00    +0.042 A 
ATOM     20  C   UNL     1      45.552  78.705  40.894  0.00  0.00    +0.199 C 
ATOM     21  O   UNL     1      45.746  77.815  41.746  0.00  0.00    -0.286 OA
ATOM     22  O   UNL     1      47.567  78.993  42.728  0.00  0.00    -0.287 OA
ATOM     23  O   UNL     1      50.146  84.770  42.071  0.00  0.00    -0.218 OA
ENDROOT
BRANCH   3  24
ATOM     24  C   UNL     1      51.199  83.007  40.977  0.00  0.00    +0.179 C 
ATOM     25  O   UNL     1      51.876  82.096  41.393  0.00  0.00    -0.293 OA
ATOM     26  C   UNL     1      51.574  83.701  39.730  0.00  0.00    +0.075 C 
ENDBRANCH   3  24
BRANCH   1  27
ATOM     27  O   UNL     1      50.413  80.442  42.594  0.00  0.00    -0.328 OA
BRANCH  27  33
ATOM     28  C   UNL     1      52.309  80.396  46.398  0.00  0.00    +0.035 C 
ATOM     29  C   UNL     1      50.969  79.860  45.968  0.00  0.00    +0.150 C 
ATOM     30  C   UNL     1      50.978  78.339  45.843  0.00  0.00    +0.196 C 
ATOM     31  C   UNL     1      51.015  77.947  44.365  0.00  0.00    +0.130 C 
ATOM     32  C   UNL     1      51.929  78.926  43.682  0.00  0.00    +0.083 C 
ATOM     33  C   UNL     1      51.248  80.288  43.705  0.00  0.00    +0.237 C 
ATOM     34  O   UNL     1      50.483  80.469  44.830  0.00  0.00    -0.330 OA
ATOM     35  N   UNL     1      51.517  76.617  44.196  0.00  0.00    -0.130 NA
ATOM     36  O   UNL     1      52.146  77.835  46.418  0.00  0.00    -0.219 OA
ENDBRANCH  27  33
ENDBRANCH   1  27
TORSDOF 3
