REMARK  Name = Idebenone
REMARK  12 active torsions:
REMARK  status: ('A' for Active; 'I' for Inactive)
REMARK    1  A    between atoms: C_3  and  C_14
REMARK    2  A    between atoms: C_6  and  O_12
REMARK    3  A    between atoms: C_7  and  O_10
REMARK    4  A    between atoms: C_14  and  C_15
REMARK    5  A    between atoms: C_15  and  C_16
REMARK    6  A    between atoms: C_16  and  C_17
REMARK    7  A    between atoms: C_17  and  C_18
REMARK    8  A    between atoms: C_18  and  C_19
REMARK    9  A    between atoms: C_19  and  C_20
REMARK   10  A    between atoms: C_20  and  C_21
REMARK   11  A    between atoms: C_21  and  C_22
REMARK   12  A    between atoms: C_22  and  C_23
REMARK                            x       y       z     vdW  Elec       q    Type
REMARK                         _______ _______ _______ _____ _____    ______ ____
ROOT
ATOM      1  C   UNL     1      46.641  82.362  38.959  0.00  0.00    +0.034 C 
ATOM      2  C   UNL     1      45.902  81.194  39.503  0.00  0.00    +0.019 C 
ATOM      3  C   UNL     1      46.181  80.582  40.613  0.00  0.00    +0.019 C 
ATOM      4  C   UNL     1      45.338  79.416  41.023  0.00  0.00    +0.228 C 
ATOM      5  O   UNL     1      45.575  78.793  42.095  0.00  0.00    -0.284 OA
ATOM      6  C   UNL     1      44.223  78.930  40.246  0.00  0.00    +0.214 C 
ATOM      7  C   UNL     1      43.942  79.555  39.118  0.00  0.00    +0.214 C 
ATOM      8  C   UNL     1      44.754  80.686  38.712  0.00  0.00    +0.228 C 
ATOM      9  O   UNL     1      44.480  81.289  37.621  0.00  0.00    -0.284 OA
ENDROOT
BRANCH   7  10
ATOM     10  O   UNL     1      42.882  79.132  38.331  0.00  0.00    -0.465 OA
ATOM     11  C   UNL     1      42.883  77.800  37.791  0.00  0.00    +0.253 C 
ENDBRANCH   7  10
BRANCH   6  12
ATOM     12  O   UNL     1      43.452  77.825  40.668  0.00  0.00    -0.465 OA
ATOM     13  C   UNL     1      44.162  76.672  41.120  0.00  0.00    +0.253 C 
ENDBRANCH   6  12
BRANCH   3  14
ATOM     14  C   UNL     1      47.223  80.895  41.552  0.00  0.00    +0.029 C 
BRANCH  14  15
ATOM     15  C   UNL     1      47.029  81.763  42.724  0.00  0.00    +0.005 C 
BRANCH  15  16
ATOM     16  C   UNL     1      48.412  82.358  43.014  0.00  0.00    +0.000 C 
BRANCH  16  17
ATOM     17  C   UNL     1      48.432  83.823  43.107  0.00  0.00    +0.000 C 
BRANCH  17  18
ATOM     18  C   UNL     1      48.859  84.412  44.404  0.00  0.00    +0.000 C 
BRANCH  18  19
ATOM     19  C   UNL     1      50.347  84.681  44.416  0.00  0.00    +0.000 C 
BRANCH  19  20
ATOM     20  C   UNL     1      50.917  84.874  43.030  0.00  0.00    +0.000 C 
BRANCH  20  21
ATOM     21  C   UNL     1      52.410  85.109  43.072  0.00  0.00    +0.003 C 
BRANCH  21  22
ATOM     22  C   UNL     1      53.072  83.774  42.749  0.00  0.00    +0.036 C 
BRANCH  22  23
ATOM     23  C   UNL     1      53.207  83.614  41.238  0.00  0.00    +0.182 C 
ATOM     24  O   UNL     1      53.942  82.440  40.983  0.00  0.00    -0.220 OA
ENDBRANCH  22  23
ENDBRANCH  21  22
ENDBRANCH  20  21
ENDBRANCH  19  20
ENDBRANCH  18  19
ENDBRANCH  17  18
ENDBRANCH  16  17
ENDBRANCH  15  16
ENDBRANCH  14  15
ENDBRANCH   3  14
TORSDOF 12
