REMARK  Name = Idelalisib
REMARK  4 active torsions:
REMARK  status: ('A' for Active; 'I' for Inactive)
REMARK    1  A    between atoms: C_2  and  C_3
REMARK    2  A    between atoms: C_3  and  C_4
REMARK    3  A    between atoms: C_3  and  N_22
REMARK    4  A    between atoms: N_15  and  C_16
REMARK                            x       y       z     vdW  Elec       q    Type
REMARK                         _______ _______ _______ _____ _____    ______ ____
ROOT
ATOM      1  C   UNL     1      48.752  81.032  42.222  0.00  0.00    +0.146 A 
ATOM      2  N   UNL     1      48.585  79.729  41.779  0.00  0.00    -0.230 NA
ATOM      3  C   UNL     1      49.549  78.849  41.600  0.00  0.00    +0.089 A 
ATOM      4  C   UNL     1      50.832  79.221  41.864  0.00  0.00    +0.102 A 
ATOM      5  C   UNL     1      51.852  78.312  41.683  0.00  0.00    +0.146 A 
ATOM      6  C   UNL     1      51.614  77.019  41.237  0.00  0.00    +0.030 A 
ATOM      7  C   UNL     1      50.326  76.641  40.970  0.00  0.00    +0.004 A 
ATOM      8  C   UNL     1      49.305  77.546  41.150  0.00  0.00    +0.019 A 
ATOM      9  F   UNL     1      53.116  78.683  41.945  0.00  0.00    -0.204 F 
ATOM     10  C   UNL     1      51.038  80.497  42.301  0.00  0.00    +0.269 A 
ATOM     11  O   UNL     1      52.197  80.880  42.555  0.00  0.00    -0.266 OA
ATOM     12  N   UNL     1      50.005  81.407  42.482  0.00  0.00    -0.261 N 
ENDROOT
BRANCH  12  13
ATOM     13  C   UNL     1      50.403  82.692  42.901  0.00  0.00    +0.068 A 
ATOM     14  C   UNL     1      50.802  83.641  41.997  0.00  0.00    +0.018 A 
ATOM     15  C   UNL     1      51.142  84.918  42.346  0.00  0.00    +0.001 A 
ATOM     16  C   UNL     1      51.085  85.275  43.671  0.00  0.00    +0.000 A 
ATOM     17  C   UNL     1      50.683  84.337  44.631  0.00  0.00    +0.001 A 
ATOM     18  C   UNL     1      50.342  83.037  44.226  0.00  0.00    +0.018 A 
ENDBRANCH  12  13
BRANCH   1  19
ATOM     19  C   UNL     1      47.524  81.847  42.333  0.00  0.00    +0.151 C 
BRANCH  19  20
ATOM     20  N   UNL     1      46.368  81.275  41.703  0.00  0.00    -0.213 NA
ATOM     21  C   UNL     1      45.947  81.451  40.376  0.00  0.00    +0.170 A 
ATOM     22  N   UNL     1      46.393  82.469  39.631  0.00  0.00    -0.206 NA
ATOM     23  C   UNL     1      46.000  82.673  38.354  0.00  0.00    +0.202 A 
ATOM     24  N   UNL     1      45.112  81.835  37.752  0.00  0.00    -0.203 NA
ATOM     25  C   UNL     1      44.639  80.801  38.462  0.00  0.00    +0.186 A 
ATOM     26  C   UNL     1      45.048  80.605  39.764  0.00  0.00    +0.152 A 
ATOM     27  N   UNL     1      44.388  79.490  40.178  0.00  0.00    -0.218 NA
ATOM     28  C   UNL     1      43.624  79.037  39.188  0.00  0.00    +0.200 A 
ATOM     29  N   UNL     1      43.766  79.842  38.106  0.00  0.00    -0.203 NA
ENDBRANCH  19  20
BRANCH  19  31
ATOM     30  C   UNL     1      48.262  83.803  43.706  0.00  0.00    +0.002 C 
ATOM     31  C   UNL     1      47.606  83.311  42.405  0.00  0.00    +0.029 C 
ENDBRANCH  19  31
ENDBRANCH   1  19
TORSDOF 4
