REMARK  Name = Idoxuridine
REMARK  2 active torsions:
REMARK  status: ('A' for Active; 'I' for Inactive)
REMARK    1  A    between atoms: C4*_3  and  C5*_15
REMARK    2  A    between atoms: C1*_5  and  N_6
REMARK                            x       y       z     vdW  Elec       q    Type
REMARK                         _______ _______ _______ _____ _____    ______ ____
ROOT
ATOM      1  N   UNL     1      44.679  79.215  40.347  0.00  0.00    -0.255 N 
ATOM      2  C   UNL     1      45.654  79.986  40.841  0.00  0.00    +0.093 A 
ATOM      3  C   UNL     1      46.083  81.104  40.146  0.00  0.00    +0.105 A 
ATOM      4  C   UNL     1      45.484  81.399  38.941  0.00  0.00    +0.290 A 
ATOM      5  O   UNL     1      45.867  82.411  38.305  0.00  0.00    -0.265 OA
ATOM      6  N   UNL     1      44.497  80.605  38.456  0.00  0.00    -0.153 NA
ATOM      7  C   UNL     1      44.111  79.524  39.171  0.00  0.00    +0.355 A 
ATOM      8  O   UNL     1      43.186  78.786  38.709  0.00  0.00    -0.244 OA
ATOM      9  I   UNL     1      47.612  82.292  40.945  0.00  0.00    -0.036 I 
ENDROOT
BRANCH   1  14
ATOM     10  C2* UNL     1      44.955  76.853  40.471  0.00  0.00    +0.089 C 
ATOM     11  C3* UNL     1      46.008  76.589  41.556  0.00  0.00    +0.186 C 
ATOM     12  C4* UNL     1      45.188  76.899  42.768  0.00  0.00    +0.180 C 
ATOM     13  O4* UNL     1      44.598  78.109  42.405  0.00  0.00    -0.332 OA
ATOM     14  C1* UNL     1      44.228  78.029  41.091  0.00  0.00    +0.211 C 
ATOM     15  O3* UNL     1      46.510  75.323  41.502  0.00  0.00    -0.220 OA
BRANCH  12  16
ATOM     16  C5* UNL     1      44.077  75.910  43.001  0.00  0.00    +0.214 C 
ATOM     17  O5* UNL     1      43.722  75.793  44.325  0.00  0.00    -0.218 OA
ENDBRANCH  12  16
ENDBRANCH   1  14
TORSDOF 2
