REMARK  Name = Iloprost
REMARK  9 active torsions:
REMARK  status: ('A' for Active; 'I' for Inactive)
REMARK    1  A    between atoms: C_3  and  C_4
REMARK    2  A    between atoms: C_4  and  C_5
REMARK    3  A    between atoms: C_5  and  C_7
REMARK    4  A    between atoms: C_7  and  C_8
REMARK    5  A    between atoms: C_9  and  C_10
REMARK    6  A    between atoms: C_17  and  C_18
REMARK    7  A    between atoms: C_18  and  C_19
REMARK    8  A    between atoms: C_19  and  C_20
REMARK    9  A    between atoms: C_20  and  C_21
REMARK                            x       y       z     vdW  Elec       q    Type
REMARK                         _______ _______ _______ _____ _____    ______ ____
ROOT
ATOM      1  C   UNL     1      46.654  80.534  40.397  0.00  0.00    +0.052 C 
ATOM      2  C   UNL     1      46.833  81.358  39.168  0.00  0.00    +0.156 C 
ATOM      3  C   UNL     1      45.458  81.812  38.845  0.00  0.00    +0.034 C 
ATOM      4  C   UNL     1      44.526  81.367  39.959  0.00  0.00    +0.007 C 
ATOM      5  C   UNL     1      45.275  80.541  40.919  0.00  0.00    +0.011 C 
ATOM      6  C   UNL     1      44.598  79.254  41.136  0.00  0.00    +0.022 C 
ATOM      7  C   UNL     1      43.775  79.112  39.789  0.00  0.00    -0.048 C 
ATOM      8  C   UNL     1      43.639  77.900  39.348  0.00  0.00    -0.035 C 
ATOM      9  C   UNL     1      43.410  80.461  39.434  0.00  0.00    +0.022 C 
ATOM     10  O   UNL     1      47.390  80.695  38.074  0.00  0.00    -0.223 OA
ENDROOT
BRANCH   1  12
ATOM     11  C   UNL     1      48.768  81.581  41.490  0.00  0.00    +0.002 C 
ATOM     12  C   UNL     1      47.525  81.116  41.407  0.00  0.00    -0.026 C 
BRANCH  11  13
ATOM     13  C   UNL     1      48.987  82.232  42.749  0.00  0.00    +0.175 C 
ATOM     14  O   UNL     1      50.222  81.697  43.324  0.00  0.00    -0.218 OA
BRANCH  13  15
ATOM     15  C   UNL     1      49.013  83.680  43.051  0.00  0.00    +0.048 C 
ATOM     16  C   UNL     1      47.710  84.303  43.485  0.00  0.00    +0.004 C 
BRANCH  15  17
ATOM     17  C   UNL     1      49.874  83.702  44.346  0.00  0.00    +0.079 C 
BRANCH  17  20
ATOM     18  C   UNL     1      52.296  86.820  45.270  0.00  0.00    +0.090 C 
ATOM     19  C   UNL     1      51.424  85.730  44.942  0.00  0.00    -0.090 C 
ATOM     20  C   UNL     1      50.648  84.724  44.648  0.00  0.00    -0.091 C 
ENDBRANCH  17  20
ENDBRANCH  15  17
ENDBRANCH  13  15
ENDBRANCH  11  13
ENDBRANCH   1  12
BRANCH   8  21
ATOM     21  C   UNL     1      42.926  77.170  38.342  0.00  0.00    +0.026 C 
BRANCH  21  22
ATOM     22  C   UNL     1      41.416  77.601  38.469  0.00  0.00    +0.016 C 
BRANCH  22  23
ATOM     23  C   UNL     1      40.819  77.217  37.106  0.00  0.00    +0.114 C 
BRANCH  23  24
ATOM     24  C   UNL     1      40.000  75.958  37.333  0.00  0.00    +0.365 C 
ATOM     25  O   UNL     1      39.246  75.433  36.537  0.00  0.00    -0.246 OA
ATOM     26  O   UNL     1      40.226  75.428  38.641  0.00  0.00    -0.246 OA
ENDBRANCH  23  24
ENDBRANCH  22  23
ENDBRANCH  21  22
ENDBRANCH   8  21
TORSDOF 9
