REMARK  Name = Iloperidone
REMARK  8 active torsions:
REMARK  status: ('A' for Active; 'I' for Inactive)
REMARK    1  A    between atoms: C_2  and  C_4
REMARK    2  A    between atoms: C_6  and  O_30
REMARK    3  A    between atoms: C_7  and  O_10
REMARK    4  A    between atoms: O_10  and  C_11
REMARK    5  A    between atoms: C_11  and  C_12
REMARK    6  A    between atoms: C_12  and  C_13
REMARK    7  A    between atoms: C_13  and  N_14
REMARK    8  A    between atoms: C_17  and  C_20
REMARK                            x       y       z     vdW  Elec       q    Type
REMARK                         _______ _______ _______ _____ _____    ______ ____
ROOT
ATOM      1  N   UNL     1      45.714  80.443  40.159  0.00  0.00    -0.273 NA
ATOM      2  C   UNL     1      45.272  80.332  41.474  0.00  0.00    +0.072 C 
ATOM      3  C   UNL     1      46.289  80.844  42.425  0.00  0.00    +0.023 C 
ATOM      4  C   UNL     1      47.414  81.516  41.742  0.00  0.00    +0.046 C 
ATOM      5  C   UNL     1      48.069  80.727  40.668  0.00  0.00    +0.023 C 
ATOM      6  C   UNL     1      46.995  80.299  39.652  0.00  0.00    +0.072 C 
ENDROOT
BRANCH   4   7
ATOM      7  C   UNL     1      48.343  82.073  42.745  0.00  0.00    +0.100 A 
ATOM      8  N   UNL     1      48.457  81.659  44.044  0.00  0.00    -0.081 NA
ATOM      9  O   UNL     1      49.477  82.257  44.596  0.00  0.00    -0.354 OA
ATOM     10  C   UNL     1      50.076  83.083  43.736  0.00  0.00    +0.179 A 
ATOM     11  C   UNL     1      49.334  82.950  42.523  0.00  0.00    +0.054 A 
ATOM     12  C   UNL     1      49.779  83.720  41.478  0.00  0.00    +0.007 A 
ATOM     13  C   UNL     1      50.824  84.555  41.561  0.00  0.00    +0.030 A 
ATOM     14  C   UNL     1      51.493  84.673  42.740  0.00  0.00    +0.143 A 
ATOM     15  C   UNL     1      51.109  83.916  43.800  0.00  0.00    +0.070 A 
ATOM     16  F   UNL     1      52.465  85.576  42.919  0.00  0.00    -0.204 F 
ENDBRANCH   4   7
BRANCH   1  17
ATOM     17  C   UNL     1      44.746  80.947  39.249  0.00  0.00    +0.076 C 
BRANCH  17  18
ATOM     18  C   UNL     1      43.864  79.947  38.743  0.00  0.00    +0.065 C 
BRANCH  18  19
ATOM     19  C   UNL     1      44.162  78.565  39.546  0.00  0.00    +0.207 C 
BRANCH  19  20
ATOM     20  O   UNL     1      43.133  78.011  38.983  0.00  0.00    -0.472 OA
BRANCH  20  24
ATOM     21  C   UNL     1      40.022  75.851  37.632  0.00  0.00    +0.038 A 
ATOM     22  C   UNL     1      40.723  75.440  38.724  0.00  0.00    +0.043 A 
ATOM     23  C   UNL     1      41.776  76.188  39.176  0.00  0.00    +0.172 A 
ATOM     24  C   UNL     1      42.059  77.430  38.390  0.00  0.00    +0.172 A 
ATOM     25  C   UNL     1      41.441  77.858  37.348  0.00  0.00    +0.040 A 
ATOM     26  C   UNL     1      40.324  77.004  36.949  0.00  0.00    +0.006 A 
BRANCH  21  28
ATOM     27  C   UNL     1      37.991  75.698  36.209  0.00  0.00    +0.077 C 
ATOM     28  C   UNL     1      38.696  75.263  37.492  0.00  0.00    +0.174 C 
ATOM     29  O   UNL     1      38.134  74.512  38.273  0.00  0.00    -0.291 OA
ENDBRANCH  21  28
BRANCH  23  30
ATOM     30  O   UNL     1      42.642  76.034  40.177  0.00  0.00    -0.468 OA
ATOM     31  C   UNL     1      42.707  75.662  41.469  0.00  0.00    +0.253 C 
ENDBRANCH  23  30
ENDBRANCH  20  24
ENDBRANCH  19  20
ENDBRANCH  18  19
ENDBRANCH  17  18
ENDBRANCH   1  17
TORSDOF 8
