REMARK  Name = Imatinib
REMARK  6 active torsions:
REMARK  status: ('A' for Active; 'I' for Inactive)
REMARK    1  A    between atoms: C_3  and  N_25
REMARK    2  A    between atoms: C_5  and  N_8
REMARK    3  A    between atoms: C_9  and  C_11
REMARK    4  A    between atoms: C_14  and  C_17
REMARK    5  A    between atoms: C_17  and  N_18
REMARK    6  A    between atoms: C_30  and  C_32
REMARK                            x       y       z     vdW  Elec       q    Type
REMARK                         _______ _______ _______ _____ _____    ______ ____
ROOT
ATOM      1  C   UNL     1      46.041  78.968  42.155  0.00  0.00    +0.032 C 
ATOM      2  C   UNL     1      45.036  78.285  41.339  0.00  0.00    -0.006 A 
ATOM      3  C   UNL     1      44.211  79.064  40.508  0.00  0.00    +0.071 A 
ATOM      4  C   UNL     1      43.291  78.388  39.766  0.00  0.00    +0.033 A 
ATOM      5  C   UNL     1      43.145  76.995  39.803  0.00  0.00    +0.075 A 
ATOM      6  C   UNL     1      43.971  76.293  40.625  0.00  0.00    +0.016 A 
ATOM      7  C   UNL     1      44.941  76.921  41.417  0.00  0.00    -0.002 A 
ENDROOT
BRANCH   3   8
ATOM      8  N   UNL     1      44.392  80.447  40.507  0.00  0.00    -0.178 NA
ATOM      9  C   UNL     1      45.517  81.138  40.023  0.00  0.00    +0.241 A 
ATOM     10  N   UNL     1      45.565  81.736  38.841  0.00  0.00    -0.211 NA
ATOM     11  C   UNL     1      46.640  82.393  38.383  0.00  0.00    +0.103 A 
ATOM     12  C   UNL     1      47.795  82.472  39.170  0.00  0.00    +0.040 A 
ATOM     13  C   UNL     1      47.762  81.857  40.398  0.00  0.00    +0.087 A 
ATOM     14  N   UNL     1      46.654  81.233  40.764  0.00  0.00    -0.212 NA
BRANCH  13  15
ATOM     15  C   UNL     1      48.955  81.923  41.244  0.00  0.00    +0.037 A 
ATOM     16  C   UNL     1      48.776  81.514  42.568  0.00  0.00    +0.100 A 
ATOM     17  N   UNL     1      49.768  81.520  43.447  0.00  0.00    -0.242 NA
ATOM     18  C   UNL     1      50.970  81.929  43.054  0.00  0.00    +0.099 A 
ATOM     19  C   UNL     1      51.221  82.345  41.773  0.00  0.00    +0.021 A 
ATOM     20  C   UNL     1      50.181  82.339  40.849  0.00  0.00    +0.005 A 
ENDBRANCH  13  15
ENDBRANCH   3   8
BRANCH   5  21
ATOM     21  N   UNL     1      42.161  76.406  38.999  0.00  0.00    -0.175 NA
ATOM     22  C   UNL     1      41.244  77.059  38.163  0.00  0.00    +0.269 C 
ATOM     23  O   UNL     1      41.267  78.311  38.079  0.00  0.00    -0.268 OA
BRANCH  22  24
ATOM     24  C   UNL     1      40.229  76.334  37.357  0.00  0.00    +0.055 A 
ATOM     25  C   UNL     1      39.447  76.939  36.418  0.00  0.00    +0.004 A 
ATOM     26  C   UNL     1      38.522  76.184  35.704  0.00  0.00    -0.003 A 
ATOM     27  C   UNL     1      38.338  74.832  35.887  0.00  0.00    -0.006 A 
ATOM     28  C   UNL     1      39.133  74.237  36.836  0.00  0.00    -0.003 A 
ATOM     29  C   UNL     1      40.060  74.970  37.558  0.00  0.00    +0.004 A 
BRANCH  27  30
ATOM     30  C   UNL     1      37.335  74.136  35.081  0.00  0.00    +0.099 C 
BRANCH  30  31
ATOM     31  N   UNL     1      37.657  73.894  33.737  0.00  0.00    -0.267 NA
ATOM     32  C   UNL     1      38.548  72.810  33.485  0.00  0.00    +0.090 C 
ATOM     33  C   UNL     1      38.757  72.537  32.021  0.00  0.00    +0.090 C 
ATOM     34  N   UNL     1      37.487  72.256  31.432  0.00  0.00    -0.269 NA
ATOM     35  C   UNL     1      36.494  73.251  31.655  0.00  0.00    +0.090 C 
ATOM     36  C   UNL     1      36.739  74.224  32.740  0.00  0.00    +0.090 C 
ATOM     37  C   UNL     1      37.050  70.905  31.600  0.00  0.00    +0.090 C 
ENDBRANCH  30  31
ENDBRANCH  27  30
ENDBRANCH  22  24
ENDBRANCH   5  21
TORSDOF 6
