REMARK  Name = Imidapril
REMARK  10 active torsions:
REMARK  status: ('A' for Active; 'I' for Inactive)
REMARK    1  A    between atoms: C_2  and  O_3
REMARK    2  A    between atoms: O_3  and  C_4
REMARK    3  A    between atoms: C_4  and  C_6
REMARK    4  A    between atoms: C_6  and  C_7
REMARK    5  A    between atoms: C_6  and  N_15
REMARK    6  A    between atoms: C_7  and  C_8
REMARK    7  A    between atoms: C_8  and  C_9
REMARK    8  A    between atoms: N_15  and  CA_16
REMARK    9  A    between atoms: CA_16  and  C_18
REMARK   10  A    between atoms: C_21  and  C_27
REMARK                            x       y       z     vdW  Elec       q    Type
REMARK                         _______ _______ _______ _____ _____    ______ ____
ROOT
ATOM      1  N   ALA A   1      47.995  80.831  41.844  0.00  0.00    -0.201 NA
ENDROOT
BRANCH   1   2
ATOM      2  CA  ALA A   1      47.397  79.784  41.180  0.00  0.00    +0.150 C 
ATOM      3  CB  ALA A   1      47.222  78.495  41.904  0.00  0.00    +0.029 C 
BRANCH   2   4
ATOM      4  C   ALA A   1      46.092  80.203  40.600  0.00  0.00    +0.249 C 
ATOM      5  O   ALA A   1      45.905  81.477  40.527  0.00  0.00    -0.273 OA
ATOM      6  N   UNK A   2      45.089  79.322  40.140  0.00  0.00    -0.202 N 
ATOM      7  C   UNK A   2      43.700  79.577  39.840  0.00  0.00    +0.206 C 
ATOM      8  C   UNK A   2      43.021  78.284  40.327  0.00  0.00    +0.127 C 
ATOM      9  N   UNK A   2      44.010  77.251  40.052  0.00  0.00    -0.260 N 
ATOM     10  C   UNK A   2      45.258  77.916  39.892  0.00  0.00    +0.314 C 
ATOM     11  O   UNK A   2      46.336  77.376  39.586  0.00  0.00    -0.252 OA
ATOM     12  C   UNK A   2      43.700  75.835  39.973  0.00  0.00    +0.117 C 
BRANCH   7  13
ATOM     13  C   UNK A   2      43.404  79.621  38.386  0.00  0.00    +0.385 C 
ATOM     14  O   UNK A   2      42.230  79.618  37.988  0.00  0.00    -0.244 OA
ATOM     15  O   UNK A   2      44.450  79.663  37.493  0.00  0.00    -0.244 OA
ENDBRANCH   7  13
ENDBRANCH   2   4
ENDBRANCH   1   2
BRANCH   1  16
ATOM     16  C   UNK A   0      49.352  80.877  42.224  0.00  0.00    +0.172 C 
BRANCH  16  17
ATOM     17  C   UNK A   0      49.608  81.147  43.628  0.00  0.00    +0.333 C 
ATOM     18  O   UNK A   0      48.778  81.726  44.342  0.00  0.00    -0.249 OA
BRANCH  17  19
ATOM     19  O   UNK A   0      50.796  80.783  44.281  0.00  0.00    -0.448 OA
BRANCH  19  21
ATOM     20  C   UNK A   0      50.926  80.049  46.592  0.00  0.00    +0.051 C 
ATOM     21  C   UNK A   0      51.086  81.162  45.595  0.00  0.00    +0.209 C 
ENDBRANCH  19  21
ENDBRANCH  17  19
ENDBRANCH  16  17
BRANCH  16  22
ATOM     22  C   UNK A   0      50.246  81.626  41.283  0.00  0.00    +0.033 C 
BRANCH  22  23
ATOM     23  C   UNK A   0      49.720  82.965  40.824  0.00  0.00    +0.028 C 
BRANCH  23  24
ATOM     24  C   UNK A   0      49.697  83.942  41.950  0.00  0.00    -0.022 A 
ATOM     25  C   UNK A   0      50.850  84.292  42.608  0.00  0.00    -0.004 A 
ATOM     26  C   UNK A   0      50.837  85.205  43.661  0.00  0.00    -0.000 A 
ATOM     27  C   UNK A   0      49.660  85.778  44.064  0.00  0.00    -0.000 A 
ATOM     28  C   UNK A   0      48.495  85.438  43.414  0.00  0.00    -0.000 A 
ATOM     29  C   UNK A   0      48.517  84.519  42.357  0.00  0.00    -0.004 A 
ENDBRANCH  23  24
ENDBRANCH  22  23
ENDBRANCH  16  22
ENDBRANCH   1  16
TORSDOF 10
