REMARK  Name = Imidazole_salicylate
REMARK  1 active torsions:
REMARK  status: ('A' for Active; 'I' for Inactive)
REMARK    1  A    between atoms: C_5  and  C_7
REMARK                            x       y       z     vdW  Elec       q    Type
REMARK                         _______ _______ _______ _____ _____    ______ ____
ROOT
ATOM      1  C   UNL     1      47.525  80.929  41.558  0.00  0.00    +0.000 A 
ATOM      2  C   UNL     1      48.051  82.082  40.974  0.00  0.00    +0.003 A 
ATOM      3  C   UNL     1      47.508  82.592  39.821  0.00  0.00    +0.042 A 
ATOM      4  C   UNL     1      46.434  81.951  39.244  0.00  0.00    +0.202 A 
ATOM      5  C   UNL     1      45.901  80.797  39.821  0.00  0.00    +0.119 A 
ATOM      6  C   UNL     1      46.451  80.301  40.968  0.00  0.00    +0.010 A 
ATOM      7  O   UNL     1      45.890  82.471  38.081  0.00  0.00    -0.286 OA
ENDROOT
BRANCH   5   8
ATOM      8  C   UNL     1      44.771  80.147  39.189  0.00  0.00    +0.391 C 
ATOM      9  O   UNL     1      44.205  80.654  38.199  0.00  0.00    -0.240 OA
ATOM     10  O   UNL     1      44.281  78.936  39.666  0.00  0.00    -0.240 OA
ENDBRANCH   5   8
TORSDOF 1
REMARK  Name = Imidazole_salicylate
REMARK  1 active torsions:
REMARK  status: ('A' for Active; 'I' for Inactive)
REMARK    1  A    between atoms: C_5  and  C_7
REMARK                            x       y       z     vdW  Elec       q    Type
REMARK                         _______ _______ _______ _____ _____    ______ ____
ROOT
ATOM      1  C   UNL     1      45.560  82.038  39.741  0.00  0.00    +0.121 A 
ATOM      2  C   UNL     1      45.078  80.754  39.778  0.00  0.00    +0.121 A 
ATOM      3  N   UNL     1      46.114  79.957  40.154  0.00  0.00    -0.221 NA
ATOM      4  C   UNL     1      47.190  80.719  40.340  0.00  0.00    +0.199 A 
ATOM      5  N   UNL     1      46.840  81.985  40.086  0.00  0.00    -0.221 NA
ENDROOT
TORSDOF 0
