REMARK  Name = Imipenem
REMARK  6 active torsions:
REMARK  status: ('A' for Active; 'I' for Inactive)
REMARK    1  A    between atoms: C_2  and  C_3
REMARK    2  A    between atoms: C_6  and  S_14
REMARK    3  A    between atoms: C_7  and  C_11
REMARK    4  A    between atoms: S_14  and  C_15
REMARK    5  A    between atoms: C_15  and  C_16
REMARK    6  A    between atoms: C_16  and  N_17
REMARK                            x       y       z     vdW  Elec       q    Type
REMARK                         _______ _______ _______ _____ _____    ______ ____
ROOT
ATOM      1  C   UNL     1      44.850  78.297  41.352  0.00  0.00    +0.126 C 
ATOM      2  C   UNL     1      46.104  79.047  40.955  0.00  0.00    +0.096 C 
ATOM      3  C   UNL     1      46.592  80.101  41.883  0.00  0.00    +0.055 C 
ATOM      4  C   UNL     1      46.828  81.277  40.926  0.00  0.00    +0.025 C 
ATOM      5  C   UNL     1      45.988  81.087  39.924  0.00  0.00    +0.136 C 
ATOM      6  N   UNL     1      45.221  79.889  40.126  0.00  0.00    -0.254 N 
ATOM      7  C   UNL     1      44.224  78.908  40.115  0.00  0.00    +0.233 C 
ATOM      8  O   UNL     1      43.216  78.577  39.440  0.00  0.00    -0.274 OA
ENDROOT
BRANCH   1  10
ATOM      9  C   UNL     1      45.323  76.558  39.693  0.00  0.00    +0.036 C 
ATOM     10  C   UNL     1      44.971  76.807  41.146  0.00  0.00    +0.162 C 
ATOM     11  O   UNL     1      45.986  76.268  41.945  0.00  0.00    -0.223 OA
ENDBRANCH   1  10
BRANCH   5  12
ATOM     12  C   UNL     1      45.774  81.947  38.775  0.00  0.00    +0.401 C 
ATOM     13  O   UNL     1      44.788  81.710  37.989  0.00  0.00    -0.239 OA
ATOM     14  O   UNL     1      46.522  83.028  38.410  0.00  0.00    -0.239 OA
ENDBRANCH   5  12
BRANCH   4  15
ATOM     15  S   UNL     1      48.005  82.454  41.359  0.00  0.00    -0.114 S 
BRANCH  15  16
ATOM     16  C   UNL     1      47.776  83.814  42.378  0.00  0.00    +0.088 C 
BRANCH  16  17
ATOM     17  C   UNL     1      48.773  84.071  43.487  0.00  0.00    +0.139 C 
BRANCH  17  18
ATOM     18  N   UNL     1      50.037  83.392  43.159  0.00  0.00    -0.250 NA
ATOM     19  C   UNL     1      50.955  83.945  42.485  0.00  0.00    +0.200 C 
ATOM     20  N   UNL     1      52.145  83.189  42.219  0.00  0.00    -0.104 NA
ENDBRANCH  17  18
ENDBRANCH  16  17
ENDBRANCH  15  16
ENDBRANCH   4  15
TORSDOF 6
