REMARK  Name = Imiquimod
REMARK  2 active torsions:
REMARK  status: ('A' for Active; 'I' for Inactive)
REMARK    1  A    between atoms: C_2  and  C_4
REMARK    2  A    between atoms: C_4  and  N_5
REMARK                            x       y       z     vdW  Elec       q    Type
REMARK                         _______ _______ _______ _____ _____    ______ ____
ROOT
ATOM      1  N   UNL     1      46.543  81.983  40.219  0.00  0.00    -0.309 N 
ATOM      2  C   UNL     1      46.196  82.695  39.101  0.00  0.00    +0.179 A 
ATOM      3  N   UNL     1      45.292  82.026  38.389  0.00  0.00    -0.221 NA
ATOM      4  C   UNL     1      45.012  80.857  39.005  0.00  0.00    +0.133 A 
ATOM      5  C   UNL     1      45.818  80.862  40.152  0.00  0.00    +0.083 A 
ATOM      6  C   UNL     1      45.722  79.751  40.982  0.00  0.00    +0.035 A 
ATOM      7  C   UNL     1      46.494  79.709  42.104  0.00  0.00    +0.003 A 
ATOM      8  C   UNL     1      46.382  78.575  42.922  0.00  0.00    +0.000 A 
ATOM      9  C   UNL     1      45.536  77.549  42.614  0.00  0.00    +0.002 A 
ATOM     10  C   UNL     1      44.764  77.604  41.480  0.00  0.00    +0.019 A 
ATOM     11  C   UNL     1      44.854  78.706  40.658  0.00  0.00    +0.084 A 
ATOM     12  N   UNL     1      44.118  78.784  39.541  0.00  0.00    -0.226 NA
ATOM     13  C   UNL     1      44.165  79.815  38.706  0.00  0.00    +0.189 A 
ATOM     14  N   UNL     1      43.376  79.848  37.550  0.00  0.00    -0.106 NA
ENDROOT
BRANCH   1  15
ATOM     15  C   UNL     1      47.469  82.485  41.158  0.00  0.00    +0.108 C 
BRANCH  15  17
ATOM     16  C   UNL     1      49.610  82.200  42.313  0.00  0.00    +0.002 C 
ATOM     17  C   UNL     1      48.784  81.698  41.140  0.00  0.00    +0.023 C 
ATOM     18  C   UNL     1      49.580  82.065  39.883  0.00  0.00    +0.002 C 
ENDBRANCH  15  17
ENDBRANCH   1  15
TORSDOF 2
