REMARK  Name = Incruse_Ellipta
REMARK  8 active torsions:
REMARK  status: ('A' for Active; 'I' for Inactive)
REMARK    1  A    between atoms: N_3  and  C_23
REMARK    2  A    between atoms: C_6  and  C_9
REMARK    3  A    between atoms: C_9  and  C_10
REMARK    4  A    between atoms: C_9  and  C_16
REMARK    5  A    between atoms: C_23  and  C_24
REMARK    6  A    between atoms: C_24  and  O_25
REMARK    7  A    between atoms: O_25  and  C_26
REMARK    8  A    between atoms: C_26  and  C_27
REMARK                            x       y       z     vdW  Elec       q    Type
REMARK                         _______ _______ _______ _____ _____    ______ ____
ROOT
ATOM      1  C   UNL     1      43.156  79.022  40.416  0.00  0.00    -0.019 C 
ATOM      2  C   UNL     1      44.072  79.934  41.194  0.00  0.00    -0.073 C 
ATOM      3  N   UNL     1      45.373  79.309  41.380  0.00  0.00    +0.392 N 
ATOM      4  C   UNL     1      45.170  78.359  42.465  0.00  0.00    -0.073 C 
ATOM      5  C   UNL     1      43.824  77.690  42.290  0.00  0.00    -0.019 C 
ATOM      6  C   UNL     1      43.572  77.594  40.744  0.00  0.00    +0.027 C 
ATOM      7  C   UNL     1      44.898  77.276  40.198  0.00  0.00    -0.019 C 
ATOM      8  C   UNL     1      45.724  78.578  40.214  0.00  0.00    -0.073 C 
ENDROOT
BRANCH   6   9
ATOM      9  C   UNL     1      42.440  76.691  40.530  0.00  0.00    +0.164 C 
ATOM     10  O   UNL     1      41.401  77.112  41.430  0.00  0.00    -0.217 OA
BRANCH   9  11
ATOM     11  C   UNL     1      41.793  76.553  39.246  0.00  0.00    +0.009 A 
ATOM     12  C   UNL     1      40.563  75.910  39.243  0.00  0.00    -0.002 A 
ATOM     13  C   UNL     1      39.847  75.713  38.096  0.00  0.00    -0.000 A 
ATOM     14  C   UNL     1      40.342  76.159  36.892  0.00  0.00    -0.000 A 
ATOM     15  C   UNL     1      41.558  76.795  36.895  0.00  0.00    -0.000 A 
ATOM     16  C   UNL     1      42.283  76.994  38.057  0.00  0.00    -0.002 A 
ENDBRANCH   9  11
BRANCH   9  17
ATOM     17  C   UNL     1      42.804  75.313  41.034  0.00  0.00    +0.009 A 
ATOM     18  C   UNL     1      42.377  74.873  42.266  0.00  0.00    -0.002 A 
ATOM     19  C   UNL     1      42.701  73.617  42.723  0.00  0.00    -0.000 A 
ATOM     20  C   UNL     1      43.465  72.779  41.940  0.00  0.00    -0.000 A 
ATOM     21  C   UNL     1      43.914  73.177  40.701  0.00  0.00    -0.000 A 
ATOM     22  C   UNL     1      43.573  74.442  40.272  0.00  0.00    -0.002 A 
ENDBRANCH   9  17
ENDBRANCH   6   9
BRANCH   3  23
ATOM     23  C   UNL     1      46.273  80.377  41.731  0.00  0.00    -0.040 C 
BRANCH  23  24
ATOM     24  C   UNL     1      47.705  80.083  41.564  0.00  0.00    +0.121 C 
BRANCH  24  25
ATOM     25  O   UNL     1      48.487  81.146  41.941  0.00  0.00    -0.351 OA
BRANCH  25  26
ATOM     26  C   UNL     1      48.249  82.284  41.197  0.00  0.00    +0.168 C 
BRANCH  26  27
ATOM     27  C   UNL     1      49.166  83.401  41.625  0.00  0.00    +0.007 A 
ATOM     28  C   UNL     1      50.389  83.533  40.996  0.00  0.00    -0.002 A 
ATOM     29  C   UNL     1      51.235  84.550  41.382  0.00  0.00    -0.000 A 
ATOM     30  C   UNL     1      50.858  85.428  42.391  0.00  0.00    -0.000 A 
ATOM     31  C   UNL     1      49.627  85.255  42.989  0.00  0.00    -0.000 A 
ATOM     32  C   UNL     1      48.777  84.255  42.620  0.00  0.00    -0.002 A 
ENDBRANCH  26  27
ENDBRANCH  25  26
ENDBRANCH  24  25
ENDBRANCH  23  24
ENDBRANCH   3  23
TORSDOF 8
REMARK  Name = Incruse_Ellipta
REMARK  8 active torsions:
REMARK  status: ('A' for Active; 'I' for Inactive)
REMARK    1  A    between atoms: N_3  and  C_23
REMARK    2  A    between atoms: C_6  and  C_9
REMARK    3  A    between atoms: C_9  and  C_10
REMARK    4  A    between atoms: C_9  and  C_16
REMARK    5  A    between atoms: C_23  and  C_24
REMARK    6  A    between atoms: C_24  and  O_25
REMARK    7  A    between atoms: O_25  and  C_26
REMARK    8  A    between atoms: C_26  and  C_27
REMARK                            x       y       z     vdW  Elec       q    Type
REMARK                         _______ _______ _______ _____ _____    ______ ____
ROOT
ATOM      1 BR   UNL     1      44.998  78.608  40.894  0.00  0.00    +0.000 Br
ENDROOT
TORSDOF 0
