REMARK  Name = Indapamide
REMARK  3 active torsions:
REMARK  status: ('A' for Active; 'I' for Inactive)
REMARK    1  A    between atoms: N_10  and  N_11
REMARK    2  A    between atoms: C_12  and  C_14
REMARK    3  A    between atoms: C_16  and  S_21
REMARK                            x       y       z     vdW  Elec       q    Type
REMARK                         _______ _______ _______ _____ _____    ______ ____
ROOT
ATOM      1  N   UNL     1      45.389  79.201  39.120  0.00  0.00    -0.106 NA
ATOM      2  C   UNL     1      45.404  80.621  39.279  0.00  0.00    +0.283 C 
ATOM      3  O   UNL     1      44.358  81.216  38.931  0.00  0.00    -0.267 OA
ENDROOT
BRANCH   1  13
ATOM      4  C   UNL     1      43.315  78.286  41.724  0.00  0.00    +0.024 C 
ATOM      5  C   UNL     1      44.284  77.577  40.809  0.00  0.00    +0.099 C 
ATOM      6  C   UNL     1      43.576  76.355  40.268  0.00  0.00    +0.049 C 
ATOM      7  C   UNL     1      42.613  76.957  39.313  0.00  0.00    -0.006 A 
ATOM      8  C   UNL     1      41.405  76.561  38.782  0.00  0.00    -0.003 A 
ATOM      9  C   UNL     1      40.686  77.324  37.884  0.00  0.00    -0.000 A 
ATOM     10  C   UNL     1      41.200  78.543  37.497  0.00  0.00    +0.001 A 
ATOM     11  C   UNL     1      42.410  78.946  38.026  0.00  0.00    +0.016 A 
ATOM     12  C   UNL     1      43.129  78.177  38.928  0.00  0.00    +0.063 A 
ATOM     13  N   UNL     1      44.385  78.389  39.600  0.00  0.00    -0.219 N 
ENDBRANCH   1  13
BRANCH   2  14
ATOM     14  C   UNL     1      46.531  81.365  39.803  0.00  0.00    +0.058 A 
ATOM     15  C   UNL     1      47.301  80.965  40.856  0.00  0.00    +0.025 A 
ATOM     16  C   UNL     1      48.354  81.706  41.311  0.00  0.00    +0.136 A 
ATOM     17  C   UNL     1      48.657  82.898  40.693  0.00  0.00    +0.076 A 
ATOM     18  C   UNL     1      47.907  83.349  39.619  0.00  0.00    +0.013 A 
ATOM     19  C   UNL     1      46.855  82.561  39.201  0.00  0.00    +0.006 A 
ATOM     20 CL   UNL     1      50.011  83.869  41.263  0.00  0.00    -0.081 Cl
BRANCH  16  21
ATOM     21  S   UNL     1      49.352  81.194  42.671  0.00  0.00    +0.094 S 
ATOM     22  O   UNL     1      48.763  79.989  43.312  0.00  0.00    -0.150 OA
ATOM     23  O   UNL     1      49.495  82.330  43.645  0.00  0.00    -0.150 OA
ATOM     24  N   UNL     1      50.929  80.859  42.044  0.00  0.00    +0.039 NA
ENDBRANCH  16  21
ENDBRANCH   2  14
TORSDOF 3
