REMARK  Name = Indacaterol
REMARK  6 active torsions:
REMARK  status: ('A' for Active; 'I' for Inactive)
REMARK    1  A    between atoms: C_2  and  C_3
REMARK    2  A    between atoms: C_4  and  C_28
REMARK    3  A    between atoms: C_8  and  N_12
REMARK    4  A    between atoms: N_12  and  C_13
REMARK    5  A    between atoms: C_13  and  C_14
REMARK    6  A    between atoms: C_14  and  C_15
REMARK                            x       y       z     vdW  Elec       q    Type
REMARK                         _______ _______ _______ _____ _____    ______ ____
ROOT
ATOM      1  C   UNL     1      45.732  78.918  41.075  0.00  0.00    +0.126 C 
ENDROOT
BRANCH   1   2
ATOM      2  C   UNL     1      44.769  78.828  39.937  0.00  0.00    +0.192 C 
ATOM      3  O   UNL     1      45.332  79.008  38.677  0.00  0.00    -0.217 OA
BRANCH   2   4
ATOM      4  C   UNL     1      43.807  77.710  40.022  0.00  0.00    +0.011 A 
ATOM      5  C   UNL     1      42.644  77.661  39.252  0.00  0.00    +0.020 A 
ATOM      6  C   UNL     1      42.386  78.686  38.346  0.00  0.00    +0.006 A 
ATOM      7  C   UNL     1      41.238  78.622  37.593  0.00  0.00    +0.063 A 
ATOM      8  C   UNL     1      40.363  77.568  37.731  0.00  0.00    +0.279 A 
ATOM      9  O   UNL     1      39.307  77.549  37.010  0.00  0.00    -0.265 OA
ATOM     10  N   UNL     1      40.597  76.575  38.598  0.00  0.00    -0.205 NA
ATOM     11  C   UNL     1      41.729  76.623  39.351  0.00  0.00    +0.123 A 
ATOM     12  C   UNL     1      41.971  75.586  40.248  0.00  0.00    +0.213 A 
ATOM     13  C   UNL     1      43.115  75.625  41.010  0.00  0.00    +0.043 A 
ATOM     14  C   UNL     1      44.023  76.652  40.914  0.00  0.00    +0.002 A 
ATOM     15  O   UNL     1      41.078  74.540  40.367  0.00  0.00    -0.285 OA
ENDBRANCH   2   4
ENDBRANCH   1   2
BRANCH   1  16
ATOM     16  N   UNL     1      46.937  79.603  40.735  0.00  0.00    -0.216 NA
BRANCH  16  22
ATOM     17  C   UNL     1      48.954  83.266  42.816  0.00  0.00    -0.026 A 
ATOM     18  C   UNL     1      50.042  82.627  42.294  0.00  0.00    -0.026 A 
ATOM     19  C   UNL     1      49.934  81.823  41.148  0.00  0.00    -0.009 A 
ATOM     20  C   UNL     1      48.729  81.652  40.513  0.00  0.00    -0.025 A 
ATOM     21  C   UNL     1      48.330  80.861  39.289  0.00  0.00    +0.044 C 
ATOM     22  C   UNL     1      46.869  80.543  39.669  0.00  0.00    +0.082 C 
ATOM     23  C   UNL     1      46.473  81.937  40.152  0.00  0.00    +0.044 C 
ATOM     24  C   UNL     1      47.625  82.286  41.023  0.00  0.00    -0.025 A 
ATOM     25  C   UNL     1      47.737  83.074  42.149  0.00  0.00    -0.009 A 
BRANCH  17  27
ATOM     26  C   UNL     1      48.731  85.548  43.841  0.00  0.00    +0.005 C 
ATOM     27  C   UNL     1      49.046  84.106  44.011  0.00  0.00    +0.026 C 
ENDBRANCH  17  27
BRANCH  18  28
ATOM     28  C   UNL     1      51.384  82.769  42.914  0.00  0.00    +0.026 C 
ATOM     29  C   UNL     1      52.355  83.230  41.859  0.00  0.00    +0.005 C 
ENDBRANCH  18  28
ENDBRANCH  16  22
ENDBRANCH   1  16
TORSDOF 6
