REMARK  Name = Indeloxazine
REMARK  3 active torsions:
REMARK  status: ('A' for Active; 'I' for Inactive)
REMARK    1  A    between atoms: C_4  and  C_7
REMARK    2  A    between atoms: C_7  and  O_8
REMARK    3  A    between atoms: O_8  and  C_9
REMARK                            x       y       z     vdW  Elec       q    Type
REMARK                         _______ _______ _______ _____ _____    ______ ____
ROOT
ATOM      1  C   UNL     1      48.271  83.495  42.345  0.00  0.00    +0.135 A 
ATOM      2  C   UNL     1      47.586  84.403  43.115  0.00  0.00    +0.037 A 
ATOM      3  C   UNL     1      48.207  85.262  43.986  0.00  0.00    +0.003 A 
ATOM      4  C   UNL     1      49.575  85.248  44.126  0.00  0.00    -0.000 A 
ATOM      5  C   UNL     1      50.301  84.348  43.367  0.00  0.00    -0.001 A 
ATOM      6  C   UNL     1      49.680  83.493  42.500  0.00  0.00    +0.016 A 
ATOM      7  C   UNL     1      50.724  82.656  41.838  0.00  0.00    +0.055 C 
ATOM      8  C   UNL     1      51.979  83.157  42.446  0.00  0.00    -0.021 C 
ATOM      9  C   UNL     1      51.749  84.122  43.319  0.00  0.00    -0.004 C 
ENDROOT
BRANCH   1  10
ATOM     10  O   UNL     1      47.774  82.621  41.479  0.00  0.00    -0.473 OA
BRANCH  10  11
ATOM     11  C   UNL     1      46.823  81.719  41.232  0.00  0.00    +0.236 C 
BRANCH  11  15
ATOM     12  C   UNL     1      44.246  80.814  38.566  0.00  0.00    +0.121 C 
ATOM     13  C   UNL     1      44.494  80.276  39.976  0.00  0.00    +0.161 C 
ATOM     14  O   UNL     1      45.830  79.946  40.067  0.00  0.00    -0.349 OA
ATOM     15  C   UNL     1      46.676  81.052  39.920  0.00  0.00    +0.176 C 
ATOM     16  C   UNL     1      46.368  81.832  38.715  0.00  0.00    +0.122 C 
ATOM     17  N   UNL     1      44.958  82.080  38.504  0.00  0.00    -0.213 NA
ENDBRANCH  11  15
ENDBRANCH  10  11
ENDBRANCH   1  10
TORSDOF 3
