REMARK  Name = Indinavir
REMARK  12 active torsions:
REMARK  status: ('A' for Active; 'I' for Inactive)
REMARK    1  A    between atoms: C_2  and  N_5
REMARK    2  A    between atoms: C_6  and  C_8
REMARK    3  A    between atoms: N_10  and  C_39
REMARK    4  A    between atoms: N_13  and  C_14
REMARK    5  A    between atoms: C_14  and  C_15
REMARK    6  A    between atoms: C_15  and  C_16
REMARK    7  A    between atoms: C_16  and  C_17
REMARK    8  A    between atoms: C_17  and  C_18
REMARK    9  A    between atoms: C_17  and  C_25
REMARK   10  A    between atoms: C_18  and  C_19
REMARK   11  A    between atoms: N_27  and  C_28
REMARK   12  A    between atoms: C_39  and  C_40
REMARK                            x       y       z     vdW  Elec       q    Type
REMARK                         _______ _______ _______ _____ _____    ______ ____
ROOT
ATOM      1  C   UNL     1      45.449  80.694  39.025  0.00  0.00    +0.168 C 
ATOM      2  O   UNL     1      45.381  80.001  37.849  0.00  0.00    -0.222 OA
ENDROOT
BRANCH   1   3
ATOM      3  C   UNL     1      44.377  80.271  40.041  0.00  0.00    +0.106 C 
BRANCH   3   9
ATOM      4  C   UNL     1      42.854  78.466  40.455  0.00  0.00    +0.153 C 
ATOM      5  C   UNL     1      41.585  77.816  39.938  0.00  0.00    +0.098 C 
ATOM      6  N   UNL     1      41.666  77.401  38.604  0.00  0.00    -0.266 NA
ATOM      7  C   UNL     1      42.390  78.177  37.699  0.00  0.00    +0.090 C 
ATOM      8  C   UNL     1      42.895  79.481  38.281  0.00  0.00    +0.090 C 
ATOM      9  N   UNL     1      43.528  79.282  39.512  0.00  0.00    -0.262 NA
BRANCH   4  11
ATOM     10  N   UNL     1      43.321  76.236  41.646  0.00  0.00    -0.208 NA
ATOM     11  C   UNL     1      43.771  77.418  41.040  0.00  0.00    +0.257 C 
ATOM     12  O   UNL     1      45.019  77.622  40.981  0.00  0.00    -0.272 OA
BRANCH  10  14
ATOM     13  C   UNL     1      45.277  74.938  42.149  0.00  0.00    +0.022 C 
ATOM     14  C   UNL     1      44.007  75.511  42.682  0.00  0.00    +0.079 C 
ATOM     15  C   UNL     1      44.334  76.440  43.831  0.00  0.00    +0.022 C 
ATOM     16  C   UNL     1      43.178  74.366  43.225  0.00  0.00    +0.022 C 
ENDBRANCH  10  14
ENDBRANCH   4  11
BRANCH   6  17
ATOM     17  C   UNL     1      40.526  76.705  38.146  0.00  0.00    +0.101 C 
BRANCH  17  18
ATOM     18  C   UNL     1      40.785  75.418  37.449  0.00  0.00    +0.013 A 
ATOM     19  C   UNL     1      39.731  74.703  36.928  0.00  0.00    +0.096 A 
ATOM     20  N   UNL     1      39.923  73.540  36.281  0.00  0.00    -0.243 NA
ATOM     21  C   UNL     1      41.183  73.039  36.129  0.00  0.00    +0.099 A 
ATOM     22  C   UNL     1      42.254  73.740  36.645  0.00  0.00    +0.020 A 
ATOM     23  C   UNL     1      42.068  74.933  37.309  0.00  0.00    +0.000 A 
ENDBRANCH  17  18
ENDBRANCH   6  17
ENDBRANCH   3   9
ENDBRANCH   1   3
BRANCH   1  24
ATOM     24  C   UNL     1      46.757  80.523  39.699  0.00  0.00    +0.044 C 
BRANCH  24  25
ATOM     25  C   UNL     1      47.285  81.588  40.554  0.00  0.00    +0.085 C 
BRANCH  25  26
ATOM     26  C   UNL     1      48.686  81.346  41.016  0.00  0.00    +0.242 C 
ATOM     27  O   UNL     1      49.037  80.163  41.232  0.00  0.00    -0.273 OA
ATOM     28  N   UNL     1      49.632  82.356  41.221  0.00  0.00    -0.200 NA
BRANCH  28  29
ATOM     29  C   UNL     1      51.038  82.109  41.579  0.00  0.00    +0.148 C 
ATOM     30  C   UNL     1      51.832  83.397  41.405  0.00  0.00    +0.180 C 
ATOM     31  C   UNL     1      52.956  83.161  42.418  0.00  0.00    +0.061 C 
ATOM     32  C   UNL     1      52.209  82.573  43.557  0.00  0.00    -0.022 A 
ATOM     33  C   UNL     1      52.448  82.557  44.913  0.00  0.00    -0.004 A 
ATOM     34  C   UNL     1      51.619  81.944  45.821  0.00  0.00    -0.000 A 
ATOM     35  C   UNL     1      50.497  81.320  45.327  0.00  0.00    -0.000 A 
ATOM     36  C   UNL     1      50.245  81.329  43.973  0.00  0.00    -0.003 A 
ATOM     37  C   UNL     1      51.093  81.954  43.055  0.00  0.00    -0.004 A 
ATOM     38  O   UNL     1      52.317  83.569  40.131  0.00  0.00    -0.221 OA
ENDBRANCH  28  29
ENDBRANCH  25  26
BRANCH  25  39
ATOM     39  C   UNL     1      46.485  82.091  41.700  0.00  0.00    +0.036 C 
BRANCH  39  40
ATOM     40  C   UNL     1      46.983  83.256  42.404  0.00  0.00    -0.022 A 
ATOM     41  C   UNL     1      47.283  84.446  41.840  0.00  0.00    -0.004 A 
ATOM     42  C   UNL     1      47.794  85.520  42.586  0.00  0.00    -0.000 A 
ATOM     43  C   UNL     1      47.990  85.343  43.933  0.00  0.00    -0.000 A 
ATOM     44  C   UNL     1      47.699  84.149  44.552  0.00  0.00    -0.000 A 
ATOM     45  C   UNL     1      47.201  83.125  43.784  0.00  0.00    -0.004 A 
ENDBRANCH  39  40
ENDBRANCH  25  39
ENDBRANCH  24  25
ENDBRANCH   1  24
TORSDOF 12
