REMARK  Name = Indiplon
REMARK  4 active torsions:
REMARK  status: ('A' for Active; 'I' for Inactive)
REMARK    1  A    between atoms: N_4  and  C_6
REMARK    2  A    between atoms: C_10  and  C_12
REMARK    3  A    between atoms: C_17  and  C_21
REMARK    4  A    between atoms: C_21  and  C_23
REMARK                            x       y       z     vdW  Elec       q    Type
REMARK                         _______ _______ _______ _____ _____    ______ ____
ROOT
ATOM      1  C   UNL     1      47.607  81.878  41.897  0.00  0.00    +0.086 A 
ATOM      2  C   UNL     1      47.439  80.709  42.607  0.00  0.00    +0.040 A 
ATOM      3  C   UNL     1      46.600  79.700  42.142  0.00  0.00    +0.102 A 
ATOM      4  N   UNL     1      45.975  79.921  40.990  0.00  0.00    -0.225 NA
ATOM      5  C   UNL     1      46.149  81.079  40.299  0.00  0.00    +0.168 A 
ATOM      6  C   UNL     1      45.586  81.470  39.102  0.00  0.00    +0.096 A 
ATOM      7  C   UNL     1      46.108  82.734  38.863  0.00  0.00    +0.127 A 
ATOM      8  N   UNL     1      46.937  83.065  39.874  0.00  0.00    -0.162 NA
ATOM      9  N   UNL     1      46.964  82.067  40.742  0.00  0.00    -0.212 N 
ENDROOT
BRANCH   1  14
ATOM     10  C   UNL     1      50.810  83.638  42.782  0.00  0.00    +0.054 A 
ATOM     11  C   UNL     1      50.259  84.756  43.434  0.00  0.00    +0.015 A 
ATOM     12  C   UNL     1      48.911  84.941  43.586  0.00  0.00    +0.001 A 
ATOM     13  C   UNL     1      48.033  84.013  43.091  0.00  0.00    +0.002 A 
ATOM     14  C   UNL     1      48.509  82.903  42.446  0.00  0.00    +0.019 A 
ATOM     15  C   UNL     1      49.882  82.741  42.307  0.00  0.00    +0.016 A 
BRANCH  10  19
ATOM     16  C   UNL     1      52.516  82.147  44.719  0.00  0.00    +0.095 C 
ATOM     17  C   UNL     1      53.015  82.696  43.422  0.00  0.00    +0.230 C 
ATOM     18  O   UNL     1      54.158  82.365  43.073  0.00  0.00    -0.275 OA
ATOM     19  N   UNL     1      52.203  83.536  42.675  0.00  0.00    -0.257 N 
ATOM     20  C   UNL     1      52.872  84.395  41.681  0.00  0.00    +0.120 C 
ENDBRANCH  10  19
ENDBRANCH   1  14
BRANCH   6  21
ATOM     21  C   UNL     1      44.653  80.694  38.298  0.00  0.00    +0.206 C 
ATOM     22  O   UNL     1      44.279  81.106  37.175  0.00  0.00    -0.286 OA
BRANCH  21  23
ATOM     23  C   UNL     1      44.147  79.417  38.812  0.00  0.00    +0.069 A 
ATOM     24  C   UNL     1      44.697  78.588  39.753  0.00  0.00    +0.010 A 
ATOM     25  C   UNL     1      44.031  77.468  40.049  0.00  0.00    +0.008 A 
ATOM     26  C   UNL     1      42.855  77.236  39.391  0.00  0.00    +0.036 A 
ATOM     27  S   UNL     1      42.717  78.599  38.374  0.00  0.00    -0.083 S 
ENDBRANCH  21  23
ENDBRANCH   6  21
TORSDOF 4
