REMARK  Name = Indigotindisulfonate
REMARK  3 active torsions:
REMARK  status: ('A' for Active; 'I' for Inactive)
REMARK    1  A    between atoms: C_6  and  S_7
REMARK    2  A    between atoms: C_12  and  C_14
REMARK    3  A    between atoms: C_21  and  S_24
REMARK                            x       y       z     vdW  Elec       q    Type
REMARK                         _______ _______ _______ _____ _____    ______ ____
ROOT
ATOM      1  C   UNL     1      40.417  77.147  37.762  0.00  0.00    +0.023 A 
ATOM      2  C   UNL     1      41.279  78.202  37.517  0.00  0.00    +0.021 A 
ATOM      3  C   UNL     1      42.358  78.443  38.344  0.00  0.00    +0.085 A 
ATOM      4  C   UNL     1      42.552  77.603  39.421  0.00  0.00    +0.060 A 
ATOM      5  C   UNL     1      41.679  76.544  39.660  0.00  0.00    +0.026 A 
ATOM      6  C   UNL     1      40.599  76.298  38.837  0.00  0.00    +0.136 A 
ATOM      7  C   UNL     1      43.682  78.073  40.059  0.00  0.00    +0.216 A 
ATOM      8  C   UNL     1      44.170  79.174  39.391  0.00  0.00    +0.141 A 
ATOM      9  N   UNL     1      43.347  79.371  38.360  0.00  0.00    -0.240 NA
ATOM     10  O   UNL     1      44.226  77.513  41.193  0.00  0.00    -0.285 OA
ENDROOT
BRANCH   8  11
ATOM     11  C   UNL     1      45.361  79.975  39.742  0.00  0.00    +0.141 C 
ATOM     12  N   UNL     1      45.744  81.056  39.196  0.00  0.00    -0.240 NA
ATOM     13  C   UNL     1      46.939  81.552  39.794  0.00  0.00    +0.085 A 
ATOM     14  C   UNL     1      47.325  80.677  40.816  0.00  0.00    +0.060 A 
ATOM     15  C   UNL     1      46.300  79.629  40.800  0.00  0.00    +0.216 C 
ATOM     16  O   UNL     1      46.287  78.642  41.578  0.00  0.00    -0.285 OA
ATOM     17  C   UNL     1      48.456  80.914  41.568  0.00  0.00    +0.026 A 
ATOM     18  C   UNL     1      49.244  82.016  41.342  0.00  0.00    +0.136 A 
ATOM     19  C   UNL     1      48.881  82.895  40.337  0.00  0.00    +0.023 A 
ATOM     20  C   UNL     1      47.743  82.662  39.576  0.00  0.00    +0.021 A 
BRANCH  18  21
ATOM     21  S   UNL     1      50.660  82.241  42.341  0.00  0.00    +0.141 S 
ATOM     22  O   UNL     1      50.257  82.400  43.781  0.00  0.00    -0.140 OA
ATOM     23  O   UNL     1      51.585  81.050  42.211  0.00  0.00    -0.140 OA
ATOM     24  O   UNL     1      51.506  83.620  41.876  0.00  0.00    -0.043 OA
ENDBRANCH  18  21
ENDBRANCH   8  11
BRANCH   6  25
ATOM     25  S   UNL     1      39.495  74.967  39.130  0.00  0.00    +0.141 S 
ATOM     26  O   UNL     1      38.106  75.466  39.445  0.00  0.00    -0.140 OA
ATOM     27  O   UNL     1      39.945  74.138  40.308  0.00  0.00    -0.140 OA
ATOM     28  O   UNL     1      39.401  73.947  37.795  0.00  0.00    -0.043 OA
ENDBRANCH   6  25
TORSDOF 3
