REMARK  Name = Indomethacin
REMARK  4 active torsions:
REMARK  status: ('A' for Active; 'I' for Inactive)
REMARK    1  A    between atoms: C_3  and  C_22
REMARK    2  A    between atoms: C_7  and  C_9
REMARK    3  A    between atoms: C_18  and  O_20
REMARK    4  A    between atoms: C_22  and  C_23
REMARK                            x       y       z     vdW  Elec       q    Type
REMARK                         _______ _______ _______ _____ _____    ______ ____
ROOT
ATOM      1  C   UNL     1      47.355  78.874  41.829  0.00  0.00    +0.050 C 
ATOM      2  C   UNL     1      46.111  78.928  40.998  0.00  0.00    +0.041 A 
ATOM      3  C   UNL     1      45.249  77.839  40.821  0.00  0.00    +0.003 A 
ATOM      4  C   UNL     1      44.281  78.252  39.950  0.00  0.00    +0.017 A 
ATOM      5  C   UNL     1      44.522  79.566  39.585  0.00  0.00    +0.066 A 
ATOM      6  N   UNL     1      45.664  79.948  40.257  0.00  0.00    -0.279 N 
ATOM      7  C   UNL     1      46.237  81.216  40.047  0.00  0.00    +0.264 C 
ATOM      8  O   UNL     1      45.932  81.865  38.959  0.00  0.00    -0.267 OA
ATOM      9  C   UNL     1      43.673  80.208  38.711  0.00  0.00    +0.021 A 
ATOM     10  C   UNL     1      42.568  79.522  38.196  0.00  0.00    +0.038 A 
ATOM     11  C   UNL     1      42.346  78.219  38.570  0.00  0.00    +0.139 A 
ATOM     12  C   UNL     1      43.178  77.558  39.440  0.00  0.00    +0.038 A 
ENDROOT
BRANCH   7  13
ATOM     13  C   UNL     1      47.147  81.945  40.881  0.00  0.00    +0.057 A 
ATOM     14  C   UNL     1      48.430  82.253  40.430  0.00  0.00    +0.006 A 
ATOM     15  C   UNL     1      49.310  83.019  41.136  0.00  0.00    +0.012 A 
ATOM     16  C   UNL     1      48.914  83.519  42.363  0.00  0.00    +0.058 A 
ATOM     17  C   UNL     1      47.664  83.243  42.846  0.00  0.00    +0.012 A 
ATOM     18  C   UNL     1      46.795  82.456  42.092  0.00  0.00    +0.006 A 
ATOM     19 CL   UNL     1      49.970  84.513  43.350  0.00  0.00    -0.082 Cl
ENDBRANCH   7  13
BRANCH  11  20
ATOM     20  O   UNL     1      41.246  77.553  38.049  0.00  0.00    -0.471 OA
ATOM     21  C   UNL     1      40.324  78.216  37.206  0.00  0.00    +0.252 C 
ENDBRANCH  11  20
BRANCH   3  22
ATOM     22  C   UNL     1      45.435  76.553  41.485  0.00  0.00    +0.142 C 
BRANCH  22  23
ATOM     23  C   UNL     1      44.218  75.922  41.968  0.00  0.00    +0.369 C 
ATOM     24  O   UNL     1      43.216  76.608  42.270  0.00  0.00    -0.245 OA
ATOM     25  O   UNL     1      44.141  74.550  42.103  0.00  0.00    -0.245 OA
ENDBRANCH  22  23
ENDBRANCH   3  22
TORSDOF 4
