REMARK  Name = Ingavirin
REMARK  7 active torsions:
REMARK  status: ('A' for Active; 'I' for Inactive)
REMARK    1  A    between atoms: C_2  and  C_6
REMARK    2  A    between atoms: C_6  and  C_7
REMARK    3  A    between atoms: C_7  and  N_8
REMARK    4  A    between atoms: C_9  and  C_11
REMARK    5  A    between atoms: C_11  and  C_12
REMARK    6  A    between atoms: C_12  and  C_13
REMARK    7  A    between atoms: C_13  and  C_14
REMARK                            x       y       z     vdW  Elec       q    Type
REMARK                         _______ _______ _______ _____ _____    ______ ____
ROOT
ATOM      1  N   UNL     1      44.384  78.452  39.529  0.00  0.00    -0.205 NA
ATOM      2  C   UNL     1      43.123  77.797  39.450  0.00  0.00    +0.241 C 
ATOM      3  O   UNL     1      42.787  77.025  40.380  0.00  0.00    -0.273 OA
ENDROOT
BRANCH   1   4
ATOM      4  C   UNL     1      44.846  78.909  40.807  0.00  0.00    +0.121 C 
BRANCH   4   5
ATOM      5  C   UNL     1      46.176  79.602  40.716  0.00  0.00    +0.071 C 
BRANCH   5   7
ATOM      6  C   UNL     1      45.253  81.047  38.820  0.00  0.00    +0.115 A 
ATOM      7  C   UNL     1      46.178  80.734  39.787  0.00  0.00    +0.082 A 
ATOM      8  N   UNL     1      47.130  81.677  39.741  0.00  0.00    -0.227 NA
ATOM      9  C   UNL     1      46.840  82.564  38.790  0.00  0.00    +0.199 A 
ATOM     10  N   UNL     1      45.676  82.174  38.218  0.00  0.00    -0.221 NA
ENDBRANCH   5   7
ENDBRANCH   4   5
ENDBRANCH   1   4
BRANCH   2  11
ATOM     11  C   UNL     1      42.198  78.003  38.300  0.00  0.00    +0.087 C 
BRANCH  11  12
ATOM     12  C   UNL     1      41.350  76.792  38.131  0.00  0.00    +0.021 C 
BRANCH  12  13
ATOM     13  C   UNL     1      40.452  76.784  36.945  0.00  0.00    +0.115 C 
BRANCH  13  14
ATOM     14  C   UNL     1      39.567  75.633  36.812  0.00  0.00    +0.365 C 
ATOM     15  O   UNL     1      39.664  74.677  37.611  0.00  0.00    -0.246 OA
ATOM     16  O   UNL     1      38.620  75.584  35.812  0.00  0.00    -0.246 OA
ENDBRANCH  13  14
ENDBRANCH  12  13
ENDBRANCH  11  12
ENDBRANCH   2  11
TORSDOF 7
