REMARK  Name = Inosine_pranobex
REMARK  14 active torsions:
REMARK  status: ('A' for Active; 'I' for Inactive)
REMARK    1  A    between atoms: C_2  and  C_3
REMARK    2  A    between atoms: C_3  and  N_4
REMARK    3  A    between atoms: C_9  and  C_10
REMARK    4  A    between atoms: C_10  and  N_11
REMARK    5  A    between atoms: C_16  and  C_17
REMARK    6  A    between atoms: C_17  and  N_18
REMARK    7  A    between atoms: N_25  and  C_26
REMARK    8  A    between atoms: C_29  and  C_32
REMARK    9  A    between atoms: N_38  and  C_39
REMARK   10  A    between atoms: C_42  and  C_45
REMARK   11  A    between atoms: N_51  and  C_52
REMARK   12  A    between atoms: C_55  and  C_58
REMARK   13  A    between atoms: N9_70  and  C1*_71
REMARK   14  A    between atoms: C4*_74  and  C5*_76
REMARK                            x       y       z     vdW  Elec       q    Type
REMARK                         _______ _______ _______ _____ _____    ______ ____
ROOT
ATOM      1  C   UNL     1      46.733  80.061  41.412  0.00  0.00    +0.105 C 
ENDROOT
BRANCH   1   3
ATOM      2  C   UNL     1      45.120  78.567  40.383  0.00  0.00    +0.037 C 
ATOM      3  C   UNL     1      46.064  79.722  40.098  0.00  0.00    +0.168 C 
ATOM      4  O   UNL     1      46.932  79.424  39.077  0.00  0.00    -0.222 OA
ENDBRANCH   1   3
BRANCH   1   5
ATOM      5  N   UNL     1      47.726  81.073  41.312  0.00  0.00    -0.268 NA
ATOM      6  C   UNL     1      48.965  80.642  40.755  0.00  0.00    +0.090 C 
ATOM      7  C   UNL     1      47.271  82.344  40.864  0.00  0.00    +0.090 C 
ENDBRANCH   1   5
TORSDOF 2
REMARK  Name = Inosine_pranobex
REMARK  14 active torsions:
REMARK  status: ('A' for Active; 'I' for Inactive)
REMARK    1  A    between atoms: C_2  and  C_3
REMARK    2  A    between atoms: C_3  and  N_4
REMARK    3  A    between atoms: C_9  and  C_10
REMARK    4  A    between atoms: C_10  and  N_11
REMARK    5  A    between atoms: C_16  and  C_17
REMARK    6  A    between atoms: C_17  and  N_18
REMARK    7  A    between atoms: N_25  and  C_26
REMARK    8  A    between atoms: C_29  and  C_32
REMARK    9  A    between atoms: N_38  and  C_39
REMARK   10  A    between atoms: C_42  and  C_45
REMARK   11  A    between atoms: N_51  and  C_52
REMARK   12  A    between atoms: C_55  and  C_58
REMARK   13  A    between atoms: N9_70  and  C1*_71
REMARK   14  A    between atoms: C4*_74  and  C5*_76
REMARK                            x       y       z     vdW  Elec       q    Type
REMARK                         _______ _______ _______ _____ _____    ______ ____
ROOT
ATOM      1  C   UNL     1      46.558  80.880  41.028  0.00  0.00    +0.105 C 
ENDROOT
BRANCH   1   3
ATOM      2  C   UNL     1      44.339  80.296  39.995  0.00  0.00    +0.037 C 
ATOM      3  C   UNL     1      45.834  80.093  39.990  0.00  0.00    +0.168 C 
ATOM      4  O   UNL     1      46.151  78.726  40.047  0.00  0.00    -0.222 OA
ENDBRANCH   1   3
BRANCH   1   5
ATOM      5  N   UNL     1      47.743  80.269  41.538  0.00  0.00    -0.268 NA
ATOM      6  C   UNL     1      48.505  79.526  40.579  0.00  0.00    +0.090 C 
ATOM      7  C   UNL     1      48.603  81.371  42.002  0.00  0.00    +0.090 C 
ENDBRANCH   1   5
TORSDOF 2
REMARK  Name = Inosine_pranobex
REMARK  14 active torsions:
REMARK  status: ('A' for Active; 'I' for Inactive)
REMARK    1  A    between atoms: C_2  and  C_3
REMARK    2  A    between atoms: C_3  and  N_4
REMARK    3  A    between atoms: C_9  and  C_10
REMARK    4  A    between atoms: C_10  and  N_11
REMARK    5  A    between atoms: C_16  and  C_17
REMARK    6  A    between atoms: C_17  and  N_18
REMARK    7  A    between atoms: N_25  and  C_26
REMARK    8  A    between atoms: C_29  and  C_32
REMARK    9  A    between atoms: N_38  and  C_39
REMARK   10  A    between atoms: C_42  and  C_45
REMARK   11  A    between atoms: N_51  and  C_52
REMARK   12  A    between atoms: C_55  and  C_58
REMARK   13  A    between atoms: N9_70  and  C1*_71
REMARK   14  A    between atoms: C4*_74  and  C5*_76
REMARK                            x       y       z     vdW  Elec       q    Type
REMARK                         _______ _______ _______ _____ _____    ______ ____
ROOT
ATOM      1  C   UNL     1      46.505  80.918  41.122  0.00  0.00    +0.105 C 
ENDROOT
BRANCH   1   3
ATOM      2  C   UNL     1      45.567  80.832  38.809  0.00  0.00    +0.037 C 
ATOM      3  C   UNL     1      45.734  80.099  40.123  0.00  0.00    +0.168 C 
ATOM      4  O   UNL     1      44.516  79.661  40.572  0.00  0.00    -0.222 OA
ENDBRANCH   1   3
BRANCH   1   5
ATOM      5  N   UNL     1      47.773  80.377  41.470  0.00  0.00    -0.268 NA
ATOM      6  C   UNL     1      47.999  79.175  40.715  0.00  0.00    +0.090 C 
ATOM      7  C   UNL     1      47.976  80.138  42.862  0.00  0.00    +0.090 C 
ENDBRANCH   1   5
TORSDOF 2
REMARK  Name = Inosine_pranobex
REMARK  14 active torsions:
REMARK  status: ('A' for Active; 'I' for Inactive)
REMARK    1  A    between atoms: C_2  and  C_3
REMARK    2  A    between atoms: C_3  and  N_4
REMARK    3  A    between atoms: C_9  and  C_10
REMARK    4  A    between atoms: C_10  and  N_11
REMARK    5  A    between atoms: C_16  and  C_17
REMARK    6  A    between atoms: C_17  and  N_18
REMARK    7  A    between atoms: N_25  and  C_26
REMARK    8  A    between atoms: C_29  and  C_32
REMARK    9  A    between atoms: N_38  and  C_39
REMARK   10  A    between atoms: C_42  and  C_45
REMARK   11  A    between atoms: N_51  and  C_52
REMARK   12  A    between atoms: C_55  and  C_58
REMARK   13  A    between atoms: N9_70  and  C1*_71
REMARK   14  A    between atoms: C4*_74  and  C5*_76
REMARK                            x       y       z     vdW  Elec       q    Type
REMARK                         _______ _______ _______ _____ _____    ______ ____
ROOT
ATOM      1  C   UNL     1      47.369  80.237  41.303  0.00  0.00    +0.073 A 
ATOM      2  C   UNL     1      46.522  79.403  42.053  0.00  0.00    +0.017 A 
ATOM      3  C   UNL     1      45.471  78.728  41.505  0.00  0.00    +0.008 A 
ATOM      4  C   UNL     1      45.223  78.866  40.155  0.00  0.00    +0.080 A 
ATOM      5  C   UNL     1      46.039  79.671  39.425  0.00  0.00    +0.008 A 
ATOM      6  C   UNL     1      47.121  80.368  39.981  0.00  0.00    +0.017 A 
ENDROOT
BRANCH   1  10
ATOM      7  C   UNL     1      48.675  81.834  44.340  0.00  0.00    +0.097 C 
ATOM      8  C   UNL     1      48.770  80.704  43.347  0.00  0.00    +0.246 C 
ATOM      9  O   UNL     1      49.163  79.625  43.780  0.00  0.00    -0.273 OA
ATOM     10  N   UNL     1      48.424  80.881  41.996  0.00  0.00    -0.179 NA
ENDBRANCH   1  10
BRANCH   4  11
ATOM     11  C   UNL     1      44.107  78.148  39.572  0.00  0.00    +0.388 C 
ATOM     12  O   UNL     1      44.206  77.549  38.473  0.00  0.00    -0.241 OA
ATOM     13  O   UNL     1      42.909  78.130  40.253  0.00  0.00    -0.241 OA
ENDBRANCH   4  11
TORSDOF 2
REMARK  Name = Inosine_pranobex
REMARK  14 active torsions:
REMARK  status: ('A' for Active; 'I' for Inactive)
REMARK    1  A    between atoms: C_2  and  C_3
REMARK    2  A    between atoms: C_3  and  N_4
REMARK    3  A    between atoms: C_9  and  C_10
REMARK    4  A    between atoms: C_10  and  N_11
REMARK    5  A    between atoms: C_16  and  C_17
REMARK    6  A    between atoms: C_17  and  N_18
REMARK    7  A    between atoms: N_25  and  C_26
REMARK    8  A    between atoms: C_29  and  C_32
REMARK    9  A    between atoms: N_38  and  C_39
REMARK   10  A    between atoms: C_42  and  C_45
REMARK   11  A    between atoms: N_51  and  C_52
REMARK   12  A    between atoms: C_55  and  C_58
REMARK   13  A    between atoms: N9_70  and  C1*_71
REMARK   14  A    between atoms: C4*_74  and  C5*_76
REMARK                            x       y       z     vdW  Elec       q    Type
REMARK                         _______ _______ _______ _____ _____    ______ ____
ROOT
ATOM      1  C   UNL     1      46.831  79.724  40.678  0.00  0.00    +0.073 A 
ATOM      2  C   UNL     1      46.931  79.887  42.042  0.00  0.00    +0.017 A 
ATOM      3  C   UNL     1      47.900  80.695  42.595  0.00  0.00    +0.008 A 
ATOM      4  C   UNL     1      48.799  81.365  41.795  0.00  0.00    +0.080 A 
ATOM      5  C   UNL     1      48.680  81.188  40.435  0.00  0.00    +0.008 A 
ATOM      6  C   UNL     1      47.721  80.387  39.862  0.00  0.00    +0.017 A 
ENDROOT
BRANCH   1  10
ATOM      7  C   UNL     1      43.609  79.475  39.095  0.00  0.00    +0.097 C 
ATOM      8  C   UNL     1      44.459  79.212  40.276  0.00  0.00    +0.246 C 
ATOM      9  O   UNL     1      43.951  79.284  41.435  0.00  0.00    -0.273 OA
ATOM     10  N   UNL     1      45.818  78.883  40.144  0.00  0.00    -0.179 NA
ENDBRANCH   1  10
BRANCH   4  11
ATOM     11  C   UNL     1      49.830  82.224  42.365  0.00  0.00    +0.388 C 
ATOM     12  O   UNL     1      49.735  82.590  43.553  0.00  0.00    -0.241 OA
ATOM     13  O   UNL     1      50.924  82.654  41.627  0.00  0.00    -0.241 OA
ENDBRANCH   4  11
TORSDOF 2
REMARK  Name = Inosine_pranobex
REMARK  14 active torsions:
REMARK  status: ('A' for Active; 'I' for Inactive)
REMARK    1  A    between atoms: C_2  and  C_3
REMARK    2  A    between atoms: C_3  and  N_4
REMARK    3  A    between atoms: C_9  and  C_10
REMARK    4  A    between atoms: C_10  and  N_11
REMARK    5  A    between atoms: C_16  and  C_17
REMARK    6  A    between atoms: C_17  and  N_18
REMARK    7  A    between atoms: N_25  and  C_26
REMARK    8  A    between atoms: C_29  and  C_32
REMARK    9  A    between atoms: N_38  and  C_39
REMARK   10  A    between atoms: C_42  and  C_45
REMARK   11  A    between atoms: N_51  and  C_52
REMARK   12  A    between atoms: C_55  and  C_58
REMARK   13  A    between atoms: N9_70  and  C1*_71
REMARK   14  A    between atoms: C4*_74  and  C5*_76
REMARK                            x       y       z     vdW  Elec       q    Type
REMARK                         _______ _______ _______ _____ _____    ______ ____
ROOT
ATOM      1  C   UNL     1      46.716  79.619  41.147  0.00  0.00    +0.073 A 
ATOM      2  C   UNL     1      48.021  79.421  40.749  0.00  0.00    +0.017 A 
ATOM      3  C   UNL     1      49.017  80.328  41.053  0.00  0.00    +0.008 A 
ATOM      4  C   UNL     1      48.746  81.472  41.770  0.00  0.00    +0.080 A 
ATOM      5  C   UNL     1      47.435  81.656  42.162  0.00  0.00    +0.008 A 
ATOM      6  C   UNL     1      46.432  80.760  41.865  0.00  0.00    +0.017 A 
ENDROOT
BRANCH   1  10
ATOM      7  C   UNL     1      45.316  78.539  38.300  0.00  0.00    +0.097 C 
ATOM      8  C   UNL     1      44.879  78.839  39.679  0.00  0.00    +0.246 C 
ATOM      9  O   UNL     1      43.707  79.279  39.919  0.00  0.00    -0.273 OA
ATOM     10  N   UNL     1      45.717  78.662  40.815  0.00  0.00    -0.179 NA
ENDBRANCH   1  10
BRANCH   4  11
ATOM     11  C   UNL     1      49.772  82.450  42.109  0.00  0.00    +0.388 C 
ATOM     12  O   UNL     1      49.504  83.675  42.105  0.00  0.00    -0.241 OA
ATOM     13  O   UNL     1      51.060  82.065  42.441  0.00  0.00    -0.241 OA
ENDBRANCH   4  11
TORSDOF 2
REMARK  Name = Inosine_pranobex
REMARK  14 active torsions:
REMARK  status: ('A' for Active; 'I' for Inactive)
REMARK    1  A    between atoms: C_2  and  C_3
REMARK    2  A    between atoms: C_3  and  N_4
REMARK    3  A    between atoms: C_9  and  C_10
REMARK    4  A    between atoms: C_10  and  N_11
REMARK    5  A    between atoms: C_16  and  C_17
REMARK    6  A    between atoms: C_17  and  N_18
REMARK    7  A    between atoms: N_25  and  C_26
REMARK    8  A    between atoms: C_29  and  C_32
REMARK    9  A    between atoms: N_38  and  C_39
REMARK   10  A    between atoms: C_42  and  C_45
REMARK   11  A    between atoms: N_51  and  C_52
REMARK   12  A    between atoms: C_55  and  C_58
REMARK   13  A    between atoms: N9_70  and  C1*_71
REMARK   14  A    between atoms: C4*_74  and  C5*_76
REMARK                            x       y       z     vdW  Elec       q    Type
REMARK                         _______ _______ _______ _____ _____    ______ ____
ROOT
ATOM      1  C2    I A   1      45.337  78.279  38.195  0.00  0.00    +0.203 A 
ATOM      2  N3    I A   1      46.083  78.798  39.186  0.00  0.00    -0.205 NA
ATOM      3  C4    I A   1      45.600  79.050  40.418  0.00  0.00    +0.171 A 
ATOM      4  C5    I A   1      44.249  78.736  40.612  0.00  0.00    +0.175 A 
ATOM      5  C6    I A   1      43.476  78.207  39.613  0.00  0.00    +0.301 A 
ATOM      6  O6    I A   1      42.259  77.939  39.839  0.00  0.00    -0.263 OA
ATOM      7  N1    I A   1      44.033  77.984  38.409  0.00  0.00    -0.184 NA
ATOM      8  N7    I A   1      43.988  79.062  41.885  0.00  0.00    -0.217 NA
ATOM      9  C8    I A   1      45.112  79.553  42.452  0.00  0.00    +0.182 A 
ATOM     10  N9    I A   1      46.100  79.546  41.553  0.00  0.00    -0.269 N 
ENDROOT
BRANCH  10  11
ATOM     11  C1*   I A   1      47.443  79.978  41.740  0.00  0.00    +0.241 C 
ATOM     12  C2*   I A   1      47.525  81.177  42.692  0.00  0.00    +0.234 C 
ATOM     13  C3*   I A   1      48.962  81.610  42.370  0.00  0.00    +0.216 C 
ATOM     14  C4*   I A   1      48.943  81.396  40.871  0.00  0.00    +0.183 C 
ATOM     15  O4*   I A   1      48.098  80.354  40.600  0.00  0.00    -0.331 OA
ATOM     16  O3*   I A   1      49.203  82.911  42.722  0.00  0.00    -0.218 OA
ATOM     17  O2*   I A   1      46.690  82.170  42.242  0.00  0.00    -0.216 OA
BRANCH  14  18
ATOM     18  C5*   I A   1      50.343  81.194  40.331  0.00  0.00    +0.214 C 
ATOM     19  O5*   I A   1      51.116  80.426  41.169  0.00  0.00    -0.218 OA
ENDBRANCH  14  18
ENDBRANCH  10  11
TORSDOF 2
