REMARK  Name = Intedanib
REMARK  8 active torsions:
REMARK  status: ('A' for Active; 'I' for Inactive)
REMARK    1  A    between atoms: N_5  and  C_8
REMARK    2  A    between atoms: C_8  and  C_9
REMARK    3  A    between atoms: N_11  and  C_13
REMARK    4  A    between atoms: C_16  and  N_19
REMARK    5  A    between atoms: C_20  and  C_21
REMARK    6  A    between atoms: C_20  and  C_27
REMARK    7  A    between atoms: C_34  and  C_36
REMARK    8  A    between atoms: C_36  and  O_38
REMARK                            x       y       z     vdW  Elec       q    Type
REMARK                         _______ _______ _______ _____ _____    ______ ____
ROOT
ATOM      1  N   UNL     1      43.876  79.203  39.411  0.00  0.00    -0.245 NA
ATOM      2  C   UNL     1      44.808  79.426  40.117  0.00  0.00    +0.086 C 
ENDROOT
BRANCH   2   3
ATOM      3  C   UNL     1      45.527  80.728  39.925  0.00  0.00    +0.077 A 
ATOM      4  C   UNL     1      45.319  81.693  38.982  0.00  0.00    +0.281 A 
ATOM      5  N   UNL     1      46.229  82.691  39.184  0.00  0.00    -0.208 NA
ATOM      6  C   UNL     1      47.017  82.380  40.243  0.00  0.00    +0.085 A 
ATOM      7  C   UNL     1      46.583  81.157  40.709  0.00  0.00    +0.024 A 
ATOM      8  C   UNL     1      47.222  80.580  41.803  0.00  0.00    +0.002 A 
ATOM      9  C   UNL     1      48.270  81.233  42.399  0.00  0.00    +0.007 A 
ATOM     10  C   UNL     1      48.736  82.460  41.964  0.00  0.00    +0.077 A 
ATOM     11  C   UNL     1      48.084  83.010  40.878  0.00  0.00    +0.026 A 
ATOM     12  O   UNL     1      44.334  81.647  37.985  0.00  0.00    -0.265 OA
BRANCH  10  13
ATOM     13  C   UNL     1      49.864  83.124  42.624  0.00  0.00    +0.341 C 
ATOM     14  O   UNL     1      50.274  82.644  43.713  0.00  0.00    -0.245 OA
BRANCH  13  15
ATOM     15  O   UNL     1      50.497  84.231  42.136  0.00  0.00    -0.441 OA
ATOM     16  C   UNL     1      50.999  85.219  43.041  0.00  0.00    +0.256 C 
ENDBRANCH  13  15
ENDBRANCH  10  13
ENDBRANCH   2   3
BRANCH   1  20
ATOM     17  C   UNL     1      40.525  77.114  38.074  0.00  0.00    +0.054 A 
ATOM     18  C   UNL     1      41.105  78.093  37.300  0.00  0.00    +0.016 A 
ATOM     19  C   UNL     1      42.197  78.784  37.701  0.00  0.00    +0.020 A 
ATOM     20  C   UNL     1      42.804  78.542  38.937  0.00  0.00    +0.081 A 
ATOM     21  C   UNL     1      42.212  77.538  39.733  0.00  0.00    +0.020 A 
ATOM     22  C   UNL     1      41.112  76.862  39.295  0.00  0.00    +0.016 A 
BRANCH  17  25
ATOM     23  C   UNL     1      39.568  75.315  36.744  0.00  0.00    +0.246 C 
ATOM     24  O   UNL     1      40.488  74.514  37.013  0.00  0.00    -0.273 OA
ATOM     25  N   UNL     1      39.393  76.447  37.586  0.00  0.00    -0.256 N 
ATOM     26  C   UNL     1      38.087  76.957  37.969  0.00  0.00    +0.120 C 
BRANCH  23  27
ATOM     27  C   UNL     1      38.685  75.113  35.601  0.00  0.00    +0.159 C 
BRANCH  27  32
ATOM     28  C   UNL     1      38.883  70.501  32.807  0.00  0.00    +0.090 C 
ATOM     29  N   UNL     1      38.751  71.922  32.825  0.00  0.00    -0.269 NA
ATOM     30  C   UNL     1      37.588  72.420  33.498  0.00  0.00    +0.090 C 
ATOM     31  C   UNL     1      37.838  73.016  34.846  0.00  0.00    +0.090 C 
ATOM     32  N   UNL     1      38.949  73.904  34.925  0.00  0.00    -0.263 NA
ATOM     33  C   UNL     1      39.614  74.041  33.682  0.00  0.00    +0.090 C 
ATOM     34  C   UNL     1      39.954  72.647  33.169  0.00  0.00    +0.090 C 
ENDBRANCH  27  32
ENDBRANCH  23  27
ENDBRANCH  17  25
ENDBRANCH   1  20
BRANCH   2  35
ATOM     35  C   UNL     1      45.331  78.581  41.178  0.00  0.00    +0.018 A 
ATOM     36  C   UNL     1      46.333  77.644  40.893  0.00  0.00    +0.001 A 
ATOM     37  C   UNL     1      46.852  76.842  41.880  0.00  0.00    +0.000 A 
ATOM     38  C   UNL     1      46.434  76.899  43.191  0.00  0.00    +0.000 A 
ATOM     39  C   UNL     1      45.452  77.819  43.469  0.00  0.00    +0.000 A 
ATOM     40  C   UNL     1      44.927  78.629  42.479  0.00  0.00    +0.001 A 
ENDBRANCH   2  35
TORSDOF 8
