REMARK  Name = Invert_sugar
REMARK  10 active torsions:
REMARK  status: ('A' for Active; 'I' for Inactive)
REMARK    1  A    between atoms: C_1  and  C_2
REMARK    2  A    between atoms: C_2  and  C_3
REMARK    3  A    between atoms: C_3  and  C_4
REMARK    4  A    between atoms: C_4  and  C_5
REMARK    5  A    between atoms: C_5  and  C_6
REMARK    6  A    between atoms: C_13  and  C_14
REMARK    7  A    between atoms: C_14  and  C_15
REMARK    8  A    between atoms: C_15  and  C_16
REMARK    9  A    between atoms: C_16  and  C_17
REMARK   10  A    between atoms: C_17  and  C_19
REMARK                            x       y       z     vdW  Elec       q    Type
REMARK                         _______ _______ _______ _____ _____    ______ ____
ROOT
ATOM      1  C   UNL     1      45.160  79.889  40.168  0.00  0.00    +0.218 C 
ATOM      2  O   UNL     1      45.297  79.716  41.540  0.00  0.00    -0.217 OA
ENDROOT
BRANCH   1   3
ATOM      3  C   UNL     1      44.916  78.575  39.487  0.00  0.00    +0.218 C 
ATOM      4  O   UNL     1      45.907  77.641  39.623  0.00  0.00    -0.217 OA
BRANCH   3   5
ATOM      5  C   UNL     1      43.658  77.980  40.136  0.00  0.00    +0.217 C 
ATOM      6  O   UNL     1      43.993  77.236  41.241  0.00  0.00    -0.217 OA
ENDBRANCH   3   5
ENDBRANCH   1   3
BRANCH   1   7
ATOM      7  C   UNL     1      46.178  80.767  39.546  0.00  0.00    +0.223 C 
ATOM      8  O   UNL     1      45.594  81.298  38.367  0.00  0.00    -0.217 OA
BRANCH   7   9
ATOM      9  C   UNL     1      46.614  81.957  40.346  0.00  0.00    +0.249 C 
ATOM     10  O   UNL     1      46.614  83.154  39.673  0.00  0.00    -0.212 OA
BRANCH   9  11
ATOM     11  C   UNL     1      47.884  81.744  41.068  0.00  0.00    +0.243 C 
ATOM     12  O   UNL     1      48.203  82.534  41.927  0.00  0.00    -0.285 OA
ENDBRANCH   9  11
ENDBRANCH   7   9
ENDBRANCH   1   7
TORSDOF 5
REMARK  Name = Invert_sugar
REMARK  10 active torsions:
REMARK  status: ('A' for Active; 'I' for Inactive)
REMARK    1  A    between atoms: C_1  and  C_2
REMARK    2  A    between atoms: C_2  and  C_3
REMARK    3  A    between atoms: C_3  and  C_4
REMARK    4  A    between atoms: C_4  and  C_5
REMARK    5  A    between atoms: C_5  and  C_6
REMARK    6  A    between atoms: C_13  and  C_14
REMARK    7  A    between atoms: C_14  and  C_15
REMARK    8  A    between atoms: C_15  and  C_16
REMARK    9  A    between atoms: C_16  and  C_17
REMARK   10  A    between atoms: C_17  and  C_19
REMARK                            x       y       z     vdW  Elec       q    Type
REMARK                         _______ _______ _______ _____ _____    ______ ____
ROOT
ATOM      1  C   UNL     1      44.943  80.135  40.063  0.00  0.00    +0.222 C 
ATOM      2  O   UNL     1      44.150  81.183  40.505  0.00  0.00    -0.217 OA
ENDROOT
BRANCH   1   3
ATOM      3  C   UNL     1      44.560  79.852  38.621  0.00  0.00    +0.218 C 
ATOM      4  O   UNL     1      44.541  81.089  37.966  0.00  0.00    -0.217 OA
BRANCH   3   5
ATOM      5  C   UNL     1      43.135  79.326  38.575  0.00  0.00    +0.218 C 
ATOM      6  O   UNL     1      43.161  78.012  38.994  0.00  0.00    -0.217 OA
ENDBRANCH   3   5
ENDBRANCH   1   3
BRANCH   1   7
ATOM      7  C   UNL     1      46.407  80.595  40.124  0.00  0.00    +0.244 C 
ATOM      8  O   UNL     1      47.149  79.847  39.182  0.00  0.00    -0.212 OA
BRANCH   7   9
ATOM      9  C   UNL     1      46.446  82.022  39.727  0.00  0.00    +0.216 C 
ATOM     10  O   UNL     1      45.380  82.625  39.569  0.00  0.00    -0.291 OA
BRANCH   9  11
ATOM     11  C   UNL     1      47.722  82.735  39.516  0.00  0.00    +0.249 C 
ATOM     12  O   UNL     1      48.085  82.669  38.180  0.00  0.00    -0.212 OA
ENDBRANCH   9  11
ENDBRANCH   7   9
ENDBRANCH   1   7
TORSDOF 5
