REMARK  Name = Iobenguane_Sulfate_I-131
REMARK  4 active torsions:
REMARK  status: ('A' for Active; 'I' for Inactive)
REMARK    1  A    between atoms: C_3  and  C_8
REMARK    2  A    between atoms: C_8  and  N_9
REMARK    3  A    between atoms: C_15  and  C_20
REMARK    4  A    between atoms: C_20  and  N_21
REMARK                            x       y       z     vdW  Elec       q    Type
REMARK                         _______ _______ _______ _____ _____    ______ ____
ROOT
ATOM      1  C   UNL     1      44.442  77.147  40.738  0.00  0.00    +0.000 A 
ATOM      2  C   UNL     1      45.158  78.304  40.969  0.00  0.00    -0.002 A 
ATOM      3  C   UNL     1      44.718  79.520  40.504  0.00  0.00    +0.003 A 
ATOM      4  C   UNL     1      43.535  79.544  39.798  0.00  0.00    +0.003 A 
ATOM      5  C   UNL     1      42.823  78.387  39.570  0.00  0.00    +0.030 A 
ATOM      6  C   UNL     1      43.256  77.157  40.033  0.00  0.00    +0.006 A 
ATOM      7  I   UNL     1      41.011  78.463  38.483  0.00  0.00    -0.043 I 
ENDROOT
BRANCH   3   8
ATOM      8  C   UNL     1      45.517  80.739  40.773  0.00  0.00    +0.155 C 
BRANCH   8   9
ATOM      9  N   UNL     1      46.559  80.915  39.785  0.00  0.00    -0.229 NA
ATOM     10  C   UNL     1      47.352  81.926  39.906  0.00  0.00    +0.285 C 
ATOM     11  N   UNL     1      47.419  82.866  38.842  0.00  0.00    -0.104 NA
ATOM     12  N   UNL     1      48.161  82.159  41.038  0.00  0.00    -0.104 NA
ENDBRANCH   8   9
ENDBRANCH   3   8
TORSDOF 2
REMARK  Name = Iobenguane_Sulfate_I-131
REMARK  4 active torsions:
REMARK  status: ('A' for Active; 'I' for Inactive)
REMARK    1  A    between atoms: C_3  and  C_8
REMARK    2  A    between atoms: C_8  and  N_9
REMARK    3  A    between atoms: C_15  and  C_20
REMARK    4  A    between atoms: C_20  and  N_21
REMARK                            x       y       z     vdW  Elec       q    Type
REMARK                         _______ _______ _______ _____ _____    ______ ____
ROOT
ATOM      1  C   UNL     1      43.734  77.843  38.285  0.00  0.00    +0.000 A 
ATOM      2  C   UNL     1      44.194  79.133  38.456  0.00  0.00    -0.002 A 
ATOM      3  C   UNL     1      44.358  79.698  39.703  0.00  0.00    +0.003 A 
ATOM      4  C   UNL     1      44.042  78.916  40.794  0.00  0.00    +0.003 A 
ATOM      5  C   UNL     1      43.584  77.633  40.650  0.00  0.00    +0.030 A 
ATOM      6  C   UNL     1      43.425  77.083  39.396  0.00  0.00    +0.006 A 
ATOM      7  I   UNL     1      43.102  76.445  42.343  0.00  0.00    -0.043 I 
ENDROOT
BRANCH   3   8
ATOM      8  C   UNL     1      44.846  81.070  39.938  0.00  0.00    +0.155 C 
BRANCH   8   9
ATOM      9  N   UNL     1      46.275  81.110  40.180  0.00  0.00    -0.229 NA
ATOM     10  C   UNL     1      46.976  82.042  39.633  0.00  0.00    +0.285 C 
ATOM     11  N   UNL     1      46.393  82.947  38.707  0.00  0.00    -0.104 NA
ATOM     12  N   UNL     1      48.346  82.139  39.983  0.00  0.00    -0.104 NA
ENDBRANCH   8   9
ENDBRANCH   3   8
TORSDOF 2
REMARK  Name = Iobenguane_Sulfate_I-131
REMARK  4 active torsions:
REMARK  status: ('A' for Active; 'I' for Inactive)
REMARK    1  A    between atoms: C_3  and  C_8
REMARK    2  A    between atoms: C_8  and  N_9
REMARK    3  A    between atoms: C_15  and  C_20
REMARK    4  A    between atoms: C_20  and  N_21
REMARK                            x       y       z     vdW  Elec       q    Type
REMARK                         _______ _______ _______ _____ _____    ______ ____
ROOT
ATOM      1  O   UNL     1      45.114  79.180  38.760  0.00  0.00    -0.020 OA
ATOM      2  S   UNL     1      45.101  80.155  40.136  0.00  0.00    +0.267 S 
ATOM      3  O   UNL     1      45.959  79.609  41.224  0.00  0.00    -0.113 OA
ATOM      4  O   UNL     1      43.648  80.260  40.554  0.00  0.00    -0.113 OA
ATOM      5  O   UNL     1      45.619  81.714  39.776  0.00  0.00    -0.020 OA
ENDROOT
TORSDOF 0
