REMARK  Name = Iobitridol
REMARK  12 active torsions:
REMARK  status: ('A' for Active; 'I' for Inactive)
REMARK    1  A    between atoms: N_2  and  C_3
REMARK    2  A    between atoms: C_3  and  C_4
REMARK    3  A    between atoms: C_4  and  C_5
REMARK    4  A    between atoms: C_8  and  C_10
REMARK    5  A    between atoms: C_12  and  C_26
REMARK    6  A    between atoms: C_14  and  N_17
REMARK    7  A    between atoms: C_18  and  C_20
REMARK    8  A    between atoms: C_20  and  C_21
REMARK    9  A    between atoms: C_20  and  C_23
REMARK   10  A    between atoms: N_28  and  C_30
REMARK   11  A    between atoms: C_30  and  C_31
REMARK   12  A    between atoms: C_31  and  C_32
REMARK                            x       y       z     vdW  Elec       q    Type
REMARK                         _______ _______ _______ _____ _____    ______ ____
ROOT
ATOM      1  C   UNL     1      44.445  77.893  41.802  0.00  0.00    +0.066 A 
ATOM      2  C   UNL     1      45.385  78.871  41.545  0.00  0.00    +0.040 A 
ATOM      3  C   UNL     1      45.246  79.737  40.484  0.00  0.00    +0.066 A 
ATOM      4  C   UNL     1      44.142  79.605  39.675  0.00  0.00    +0.051 A 
ATOM      5  C   UNL     1      43.170  78.627  39.897  0.00  0.00    +0.084 A 
ATOM      6  C   UNL     1      43.337  77.782  40.963  0.00  0.00    +0.051 A 
ATOM      7  I   UNL     1      41.892  76.290  41.333  0.00  0.00    -0.041 I 
ATOM      8  I   UNL     1      43.821  80.877  38.026  0.00  0.00    -0.041 I 
ATOM      9  I   UNL     1      47.070  78.954  42.818  0.00  0.00    -0.042 I 
ENDROOT
BRANCH   1  12
ATOM     10  C   UNL     1      44.897  74.833  44.129  0.00  0.00    +0.115 C 
ATOM     11  N   UNL     1      45.041  75.704  42.969  0.00  0.00    -0.272 N 
ATOM     12  C   UNL     1      44.556  77.008  42.927  0.00  0.00    +0.250 C 
ATOM     13  O   UNL     1      44.144  77.502  44.042  0.00  0.00    -0.270 OA
BRANCH  11  14
ATOM     14  C   UNL     1      45.743  75.145  41.833  0.00  0.00    +0.129 C 
BRANCH  14  15
ATOM     15  C   UNL     1      46.369  73.823  42.156  0.00  0.00    +0.204 C 
ATOM     16  O   UNL     1      45.414  72.826  42.305  0.00  0.00    -0.218 OA
BRANCH  15  17
ATOM     17  C   UNL     1      47.265  73.378  41.005  0.00  0.00    +0.217 C 
ATOM     18  O   UNL     1      47.434  72.000  41.043  0.00  0.00    -0.218 OA
ENDBRANCH  15  17
ENDBRANCH  14  15
ENDBRANCH  11  14
ENDBRANCH   1  12
BRANCH   3  19
ATOM     19  C   UNL     1      46.208  80.789  40.209  0.00  0.00    +0.250 C 
ATOM     20  O   UNL     1      45.760  81.817  39.596  0.00  0.00    -0.270 OA
ATOM     21  N   UNL     1      47.558  80.745  40.568  0.00  0.00    -0.272 N 
ATOM     22  C   UNL     1      48.340  79.553  40.171  0.00  0.00    +0.115 C 
BRANCH  21  23
ATOM     23  C   UNL     1      48.236  81.746  41.318  0.00  0.00    +0.129 C 
BRANCH  23  24
ATOM     24  C   UNL     1      49.692  81.591  41.543  0.00  0.00    +0.204 C 
ATOM     25  O   UNL     1      49.938  80.488  42.414  0.00  0.00    -0.218 OA
BRANCH  24  26
ATOM     26  C   UNL     1      50.321  82.765  42.298  0.00  0.00    +0.217 C 
ATOM     27  O   UNL     1      51.685  82.475  42.540  0.00  0.00    -0.218 OA
ENDBRANCH  24  26
ENDBRANCH  23  24
ENDBRANCH  21  23
ENDBRANCH   3  19
BRANCH   5  28
ATOM     28  N   UNL     1      42.050  78.511  39.030  0.00  0.00    -0.178 NA
ATOM     29  C   UNL     1      42.024  77.838  37.798  0.00  0.00    +0.250 C 
ATOM     30  O   UNL     1      43.105  77.449  37.320  0.00  0.00    -0.273 OA
BRANCH  29  31
ATOM     31  C   UNL     1      40.760  77.584  37.067  0.00  0.00    +0.144 C 
BRANCH  31  32
ATOM     32  C   UNL     1      40.241  76.197  37.269  0.00  0.00    +0.194 C 
ATOM     33  O   UNL     1      40.883  75.299  36.405  0.00  0.00    -0.220 OA
ENDBRANCH  31  32
BRANCH  31  34
ATOM     34  C   UNL     1      39.662  78.536  37.502  0.00  0.00    +0.194 C 
ATOM     35  O   UNL     1      40.187  79.827  37.477  0.00  0.00    -0.220 OA
ENDBRANCH  31  34
ENDBRANCH  29  31
ENDBRANCH   5  28
TORSDOF 12
