REMARK  Name = Iocetamic_acid
REMARK  4 active torsions:
REMARK  status: ('A' for Active; 'I' for Inactive)
REMARK    1  A    between atoms: C_2  and  C_3
REMARK    2  A    between atoms: C_2  and  C_18
REMARK    3  A    between atoms: C_3  and  N_4
REMARK    4  A    between atoms: N_4  and  C_5
REMARK                            x       y       z     vdW  Elec       q    Type
REMARK                         _______ _______ _______ _____ _____    ______ ____
ROOT
ATOM      1  N   UNL     1      48.680  82.781  42.075  0.00  0.00    -0.257 N 
ATOM      2  C   UNL     1      48.229  83.927  42.788  0.00  0.00    +0.230 C 
ATOM      3  O   UNL     1      49.017  84.755  43.315  0.00  0.00    -0.275 OA
ATOM      4  C   UNL     1      46.765  84.206  42.945  0.00  0.00    +0.095 C 
ENDROOT
BRANCH   1   5
ATOM      5  C   UNL     1      47.696  81.915  41.549  0.00  0.00    +0.066 A 
ATOM      6  C   UNL     1      47.369  80.772  42.293  0.00  0.00    +0.045 A 
ATOM      7  C   UNL     1      46.403  79.894  41.864  0.00  0.00    +0.014 A 
ATOM      8  C   UNL     1      45.712  80.088  40.693  0.00  0.00    +0.048 A 
ATOM      9  C   UNL     1      46.015  81.193  39.957  0.00  0.00    +0.101 A 
ATOM     10  C   UNL     1      46.996  82.082  40.397  0.00  0.00    +0.061 A 
ATOM     11  I   UNL     1      47.303  83.773  39.209  0.00  0.00    -0.040 I 
ATOM     12  N   UNL     1      45.306  81.403  38.745  0.00  0.00    -0.127 NA
ATOM     13  I   UNL     1      44.246  78.718  40.081  0.00  0.00    -0.041 I 
ATOM     14  I   UNL     1      48.327  80.321  44.116  0.00  0.00    -0.041 I 
ENDBRANCH   1   5
BRANCH   1  15
ATOM     15  C   UNL     1      50.054  82.487  41.953  0.00  0.00    +0.109 C 
BRANCH  15  17
ATOM     16  C   UNL     1      51.315  84.268  40.663  0.00  0.00    +0.014 C 
ATOM     17  C   UNL     1      51.055  83.575  41.947  0.00  0.00    +0.124 C 
BRANCH  17  18
ATOM     18  C   UNL     1      52.352  82.938  42.388  0.00  0.00    +0.366 C 
ATOM     19  O   UNL     1      53.228  82.561  41.577  0.00  0.00    -0.246 OA
ATOM     20  O   UNL     1      52.555  82.776  43.753  0.00  0.00    -0.246 OA
ENDBRANCH  17  18
ENDBRANCH  15  17
ENDBRANCH   1  15
TORSDOF 4
