REMARK  Name = Iodamide
REMARK  4 active torsions:
REMARK  status: ('A' for Active; 'I' for Inactive)
REMARK    1  A    between atoms: N_4  and  C_5
REMARK    2  A    between atoms: C_5  and  C_6
REMARK    3  A    between atoms: C_8  and  C_18
REMARK    4  A    between atoms: C_10  and  N_13
REMARK                            x       y       z     vdW  Elec       q    Type
REMARK                         _______ _______ _______ _____ _____    ______ ____
ROOT
ATOM      1  C   UNL     1      47.348  81.164  41.273  0.00  0.00    +0.012 A 
ATOM      2  C   UNL     1      46.714  81.594  40.138  0.00  0.00    +0.035 A 
ATOM      3  C   UNL     1      45.601  80.953  39.613  0.00  0.00    +0.092 A 
ATOM      4  C   UNL     1      45.110  79.839  40.255  0.00  0.00    +0.053 A 
ATOM      5  C   UNL     1      45.730  79.368  41.418  0.00  0.00    +0.084 A 
ATOM      6  C   UNL     1      46.838  80.046  41.899  0.00  0.00    +0.044 A 
ATOM      7  I   UNL     1      47.741  79.305  43.652  0.00  0.00    -0.041 I 
ATOM      8  I   UNL     1      43.435  78.838  39.503  0.00  0.00    -0.041 I 
ATOM      9  I   UNL     1      47.435  83.289  39.132  0.00  0.00    -0.043 I 
ENDROOT
BRANCH   5  10
ATOM     10  N   UNL     1      45.231  78.214  42.092  0.00  0.00    -0.178 NA
ATOM     11  C   UNL     1      45.350  76.959  41.448  0.00  0.00    +0.246 C 
ATOM     12  O   UNL     1      45.784  76.881  40.276  0.00  0.00    -0.273 OA
ATOM     13  C   UNL     1      44.963  75.740  42.157  0.00  0.00    +0.097 C 
ENDBRANCH   5  10
BRANCH   3  14
ATOM     14  C   UNL     1      44.933  81.417  38.404  0.00  0.00    +0.389 C 
ATOM     15  O   UNL     1      43.728  81.050  38.242  0.00  0.00    -0.241 OA
ATOM     16  O   UNL     1      45.540  82.219  37.453  0.00  0.00    -0.241 OA
ENDBRANCH   3  14
BRANCH   1  17
ATOM     17  C   UNL     1      48.540  81.840  41.843  0.00  0.00    +0.142 C 
BRANCH  17  21
ATOM     18  C   UNL     1      49.162  85.089  43.755  0.00  0.00    +0.096 C 
ATOM     19  C   UNL     1      49.342  83.826  43.006  0.00  0.00    +0.242 C 
ATOM     20  O   UNL     1      50.523  83.434  42.807  0.00  0.00    -0.273 OA
ATOM     21  N   UNL     1      48.227  83.060  42.517  0.00  0.00    -0.201 NA
ENDBRANCH  17  21
ENDBRANCH   1  17
TORSDOF 4
