REMARK  Name = Iodixanol
REMARK  22 active torsions:
REMARK  status: ('A' for Active; 'I' for Inactive)
REMARK    1  A    between atoms: N_4  and  C_5
REMARK    2  A    between atoms: N_4  and  C_38
REMARK    3  A    between atoms: C_5  and  C_6
REMARK    4  A    between atoms: C_6  and  C_7
REMARK    5  A    between atoms: C_7  and  N_8
REMARK    6  A    between atoms: N_8  and  C_9
REMARK    7  A    between atoms: C_11  and  C_25
REMARK    8  A    between atoms: C_13  and  C_16
REMARK    9  A    between atoms: N_18  and  C_19
REMARK   10  A    between atoms: C_19  and  C_20
REMARK   11  A    between atoms: C_20  and  C_21
REMARK   12  A    between atoms: N_27  and  C_28
REMARK   13  A    between atoms: C_28  and  C_29
REMARK   14  A    between atoms: C_29  and  C_30
REMARK   15  A    between atoms: C_40  and  C_54
REMARK   16  A    between atoms: C_42  and  C_45
REMARK   17  A    between atoms: N_47  and  C_48
REMARK   18  A    between atoms: C_48  and  C_49
REMARK   19  A    between atoms: C_49  and  C_50
REMARK   20  A    between atoms: N_56  and  C_57
REMARK   21  A    between atoms: C_57  and  C_58
REMARK   22  A    between atoms: C_58  and  C_59
REMARK                            x       y       z     vdW  Elec       q    Type
REMARK                         _______ _______ _______ _____ _____    ______ ____
ROOT
ATOM      1  C   UNL     1      46.625  77.894  41.144  0.00  0.00    +0.192 C 
ATOM      2  O   UNL     1      46.420  78.584  42.308  0.00  0.00    -0.219 OA
ENDROOT
BRANCH   1   3
ATOM      3  C   UNL     1      48.026  78.071  40.619  0.00  0.00    +0.133 C 
BRANCH   3   4
ATOM      4  N   UNL     1      49.073  77.498  41.415  0.00  0.00    -0.255 N 
ATOM      5  C   UNL     1      49.422  76.117  41.329  0.00  0.00    +0.230 C 
ATOM      6  O   UNL     1      48.891  75.305  42.122  0.00  0.00    -0.275 OA
ATOM      7  C   UNL     1      50.386  75.573  40.349  0.00  0.00    +0.095 C 
BRANCH   4   8
ATOM      8  C   UNL     1      49.743  78.301  42.410  0.00  0.00    +0.065 A 
ATOM      9  C   UNL     1      49.949  79.640  42.088  0.00  0.00    +0.049 A 
ATOM     10  C   UNL     1      50.574  80.526  42.986  0.00  0.00    +0.067 A 
ATOM     11  C   UNL     1      50.968  80.017  44.179  0.00  0.00    +0.040 A 
ATOM     12  C   UNL     1      50.779  78.657  44.558  0.00  0.00    +0.067 A 
ATOM     13  C   UNL     1      50.162  77.841  43.637  0.00  0.00    +0.049 A 
ATOM     14  I   UNL     1      49.870  75.804  44.105  0.00  0.00    -0.041 I 
ATOM     15  I   UNL     1      51.989  81.232  45.557  0.00  0.00    -0.042 I 
ATOM     16  I   UNL     1      49.325  80.413  40.231  0.00  0.00    -0.041 I 
BRANCH  12  17
ATOM     17  C   UNL     1      51.291  78.288  45.833  0.00  0.00    +0.266 C 
ATOM     18  O   UNL     1      52.216  77.399  45.880  0.00  0.00    -0.268 OA
ATOM     19  N   UNL     1      50.884  78.811  47.062  0.00  0.00    -0.199 NA
BRANCH  19  20
ATOM     20  C   UNL     1      51.356  78.303  48.346  0.00  0.00    +0.151 C 
BRANCH  20  21
ATOM     21  C   UNL     1      50.775  79.061  49.509  0.00  0.00    +0.206 C 
ATOM     22  O   UNL     1      51.252  78.553  50.713  0.00  0.00    -0.218 OA
BRANCH  21  23
ATOM     23  C   UNL     1      51.085  80.545  49.407  0.00  0.00    +0.217 C 
ATOM     24  O   UNL     1      50.582  81.171  50.522  0.00  0.00    -0.218 OA
ENDBRANCH  21  23
ENDBRANCH  20  21
ENDBRANCH  19  20
ENDBRANCH  12  17
BRANCH  10  25
ATOM     25  C   UNL     1      50.767  81.881  42.559  0.00  0.00    +0.266 C 
ATOM     26  O   UNL     1      51.727  82.056  41.705  0.00  0.00    -0.268 OA
ATOM     27  N   UNL     1      50.092  83.047  42.901  0.00  0.00    -0.199 NA
BRANCH  27  28
ATOM     28  C   UNL     1      50.509  84.410  42.539  0.00  0.00    +0.151 C 
BRANCH  28  29
ATOM     29  C   UNL     1      49.514  85.355  43.172  0.00  0.00    +0.206 C 
ATOM     30  O   UNL     1      49.892  86.668  42.795  0.00  0.00    -0.218 OA
BRANCH  29  31
ATOM     31  C   UNL     1      48.118  85.168  42.603  0.00  0.00    +0.217 C 
ATOM     32  O   UNL     1      47.198  86.044  43.128  0.00  0.00    -0.218 OA
ENDBRANCH  29  31
ENDBRANCH  28  29
ENDBRANCH  27  28
ENDBRANCH  10  25
ENDBRANCH   4   8
ENDBRANCH   3   4
ENDBRANCH   1   3
BRANCH   1  33
ATOM     33  C   UNL     1      45.628  78.405  40.117  0.00  0.00    +0.133 C 
BRANCH  33  37
ATOM     34  C   UNL     1      44.577  79.519  42.751  0.00  0.00    +0.095 C 
ATOM     35  C   UNL     1      43.759  79.167  41.574  0.00  0.00    +0.230 C 
ATOM     36  O   UNL     1      42.584  79.590  41.509  0.00  0.00    -0.275 OA
ATOM     37  N   UNL     1      44.261  78.365  40.516  0.00  0.00    -0.255 N 
BRANCH  37  38
ATOM     38  C   UNL     1      43.276  77.558  39.832  0.00  0.00    +0.065 A 
ATOM     39  C   UNL     1      43.304  76.167  40.027  0.00  0.00    +0.049 A 
ATOM     40  C   UNL     1      42.434  75.347  39.410  0.00  0.00    +0.067 A 
ATOM     41  C   UNL     1      41.483  75.921  38.559  0.00  0.00    +0.040 A 
ATOM     42  C   UNL     1      41.407  77.299  38.328  0.00  0.00    +0.067 A 
ATOM     43  C   UNL     1      42.325  78.068  38.984  0.00  0.00    +0.049 A 
ATOM     44  I   UNL     1      42.417  80.143  38.572  0.00  0.00    -0.041 I 
ATOM     45  I   UNL     1      40.124  74.640  37.605  0.00  0.00    -0.042 I 
ATOM     46  I   UNL     1      44.723  75.445  41.426  0.00  0.00    -0.041 I 
BRANCH  40  47
ATOM     47  C   UNL     1      42.464  73.892  39.505  0.00  0.00    +0.266 C 
ATOM     48  O   UNL     1      43.066  73.234  38.559  0.00  0.00    -0.268 OA
ATOM     49  N   UNL     1      41.920  73.080  40.513  0.00  0.00    -0.199 NA
BRANCH  49  50
ATOM     50  C   UNL     1      42.003  71.615  40.442  0.00  0.00    +0.151 C 
BRANCH  50  51
ATOM     51  C   UNL     1      41.337  70.945  41.613  0.00  0.00    +0.206 C 
ATOM     52  O   UNL     1      41.620  69.581  41.529  0.00  0.00    -0.218 OA
BRANCH  51  53
ATOM     53  C   UNL     1      42.023  71.476  42.876  0.00  0.00    +0.217 C 
ATOM     54  O   UNL     1      41.447  70.850  43.964  0.00  0.00    -0.218 OA
ENDBRANCH  51  53
ENDBRANCH  50  51
ENDBRANCH  49  50
ENDBRANCH  40  47
BRANCH  42  55
ATOM     55  C   UNL     1      40.400  77.788  37.399  0.00  0.00    +0.266 C 
ATOM     56  O   UNL     1      40.833  78.088  36.230  0.00  0.00    -0.268 OA
ATOM     57  N   UNL     1      39.030  77.965  37.610  0.00  0.00    -0.199 NA
BRANCH  57  58
ATOM     58  C   UNL     1      38.179  78.467  36.535  0.00  0.00    +0.151 C 
BRANCH  58  59
ATOM     59  C   UNL     1      36.753  78.668  36.939  0.00  0.00    +0.206 C 
ATOM     60  O   UNL     1      36.769  79.671  37.936  0.00  0.00    -0.218 OA
BRANCH  59  61
ATOM     61  C   UNL     1      35.906  79.132  35.778  0.00  0.00    +0.217 C 
ATOM     62  O   UNL     1      34.605  79.396  36.232  0.00  0.00    -0.218 OA
ENDBRANCH  59  61
ENDBRANCH  58  59
ENDBRANCH  57  58
ENDBRANCH  42  55
ENDBRANCH  37  38
ENDBRANCH  33  37
ENDBRANCH   1  33
TORSDOF 22
