REMARK  Name = Iodipamide
REMARK  9 active torsions:
REMARK  status: ('A' for Active; 'I' for Inactive)
REMARK    1  A    between atoms: C_3  and  C_31
REMARK    2  A    between atoms: C_5  and  N_8
REMARK    3  A    between atoms: C_9  and  C_11
REMARK    4  A    between atoms: C_11  and  C_12
REMARK    5  A    between atoms: C_12  and  C_13
REMARK    6  A    between atoms: C_13  and  C_14
REMARK    7  A    between atoms: C_14  and  C_15
REMARK    8  A    between atoms: N_17  and  C_18
REMARK    9  A    between atoms: C_22  and  C_25
REMARK                            x       y       z     vdW  Elec       q    Type
REMARK                         _______ _______ _______ _____ _____    ______ ____
ROOT
ATOM      1  C   UNL     1      44.881  79.420  39.694  0.00  0.00    +0.010 C 
ENDROOT
BRANCH   1   2
ATOM      2  C   UNL     1      44.221  79.665  38.356  0.00  0.00    +0.087 C 
BRANCH   2   4
ATOM      3  N   UNL     1      42.694  77.805  39.167  0.00  0.00    -0.178 NA
ATOM      4  C   UNL     1      43.241  78.582  38.105  0.00  0.00    +0.246 C 
ATOM      5  O   UNL     1      42.858  78.312  36.938  0.00  0.00    -0.273 OA
BRANCH   3  10
ATOM      6  C   UNL     1      41.130  74.484  39.291  0.00  0.00    +0.013 A 
ATOM      7  C   UNL     1      40.022  74.708  38.501  0.00  0.00    +0.037 A 
ATOM      8  C   UNL     1      39.757  75.929  37.915  0.00  0.00    +0.092 A 
ATOM      9  C   UNL     1      40.656  76.952  38.145  0.00  0.00    +0.053 A 
ATOM     10  C   UNL     1      41.782  76.756  38.937  0.00  0.00    +0.084 A 
ATOM     11  C   UNL     1      42.025  75.529  39.511  0.00  0.00    +0.046 A 
ATOM     12  I   UNL     1      43.739  75.294  40.695  0.00  0.00    -0.041 I 
ATOM     13  I   UNL     1      40.292  78.810  37.278  0.00  0.00    -0.041 I 
ATOM     14  I   UNL     1      38.659  73.125  38.162  0.00  0.00    -0.042 I 
BRANCH   8  15
ATOM     15  C   UNL     1      38.572  76.114  37.088  0.00  0.00    +0.389 C 
ATOM     16  O   UNL     1      38.672  75.839  35.865  0.00  0.00    -0.241 OA
ATOM     17  O   UNL     1      37.356  76.567  37.559  0.00  0.00    -0.241 OA
ENDBRANCH   8  15
ENDBRANCH   3  10
ENDBRANCH   2   4
ENDBRANCH   1   2
BRANCH   1  18
ATOM     18  C   UNL     1      45.764  80.551  40.128  0.00  0.00    +0.010 C 
BRANCH  18  19
ATOM     19  C   UNL     1      46.485  80.258  41.420  0.00  0.00    +0.087 C 
BRANCH  19  20
ATOM     20  C   UNL     1      47.365  81.399  41.772  0.00  0.00    +0.246 C 
ATOM     21  O   UNL     1      47.602  82.296  40.904  0.00  0.00    -0.273 OA
ATOM     22  N   UNL     1      47.937  81.481  43.081  0.00  0.00    -0.178 NA
BRANCH  22  23
ATOM     23  C   UNL     1      48.837  82.520  43.439  0.00  0.00    +0.084 A 
ATOM     24  C   UNL     1      48.365  83.740  43.878  0.00  0.00    +0.046 A 
ATOM     25  C   UNL     1      49.228  84.758  44.229  0.00  0.00    +0.013 A 
ATOM     26  C   UNL     1      50.586  84.555  44.141  0.00  0.00    +0.037 A 
ATOM     27  C   UNL     1      51.106  83.354  43.708  0.00  0.00    +0.092 A 
ATOM     28  C   UNL     1      50.204  82.349  43.362  0.00  0.00    +0.053 A 
ATOM     29  I   UNL     1      51.025  80.523  42.705  0.00  0.00    -0.041 I 
ATOM     30  I   UNL     1      51.897  86.101  44.674  0.00  0.00    -0.042 I 
ATOM     31  I   UNL     1      46.294  84.089  44.026  0.00  0.00    -0.041 I 
BRANCH  27  32
ATOM     32  C   UNL     1      52.536  83.160  43.623  0.00  0.00    +0.389 C 
ATOM     33  O   UNL     1      53.186  82.903  44.653  0.00  0.00    -0.241 OA
ATOM     34  O   UNL     1      53.179  83.260  42.407  0.00  0.00    -0.241 OA
ENDBRANCH  27  32
ENDBRANCH  22  23
ENDBRANCH  19  20
ENDBRANCH  18  19
ENDBRANCH   1  18
TORSDOF 9
