REMARK  Name = Iodoxamate_Meglumine
REMARK  31 active torsions:
REMARK  status: ('A' for Active; 'I' for Inactive)
REMARK    1  A    between atoms: N_2  and  C_3
REMARK    2  A    between atoms: C_3  and  C_4
REMARK    3  A    between atoms: C_4  and  C_5
REMARK    4  A    between atoms: C_5  and  C_6
REMARK    5  A    between atoms: C_6  and  C_7
REMARK    6  A    between atoms: C_7  and  C_8
REMARK    7  A    between atoms: N_15  and  C_16
REMARK    8  A    between atoms: C_16  and  C_17
REMARK    9  A    between atoms: C_17  and  C_18
REMARK   10  A    between atoms: C_18  and  C_19
REMARK   11  A    between atoms: C_19  and  C_20
REMARK   12  A    between atoms: C_20  and  C_21
REMARK   13  A    between atoms: C_29  and  C_67
REMARK   14  A    between atoms: C_31  and  N_34
REMARK   15  A    between atoms: C_35  and  C_37
REMARK   16  A    between atoms: C_37  and  C_38
REMARK   17  A    between atoms: C_38  and  O_39
REMARK   18  A    between atoms: O_39  and  C_40
REMARK   19  A    between atoms: C_40  and  C_41
REMARK   20  A    between atoms: C_41  and  O_42
REMARK   21  A    between atoms: O_42  and  C_43
REMARK   22  A    between atoms: C_43  and  C_44
REMARK   23  A    between atoms: C_44  and  O_45
REMARK   24  A    between atoms: O_45  and  C_46
REMARK   25  A    between atoms: C_46  and  C_47
REMARK   26  A    between atoms: C_47  and  O_48
REMARK   27  A    between atoms: O_48  and  C_49
REMARK   28  A    between atoms: C_49  and  C_50
REMARK   29  A    between atoms: C_50  and  C_51
REMARK   30  A    between atoms: N_53  and  C_54
REMARK   31  A    between atoms: C_58  and  C_61
REMARK                            x       y       z     vdW  Elec       q    Type
REMARK                         _______ _______ _______ _____ _____    ______ ____
ROOT
ATOM      1  C   UNL     1      46.808  73.527  42.808  0.00  0.00    +0.216 C 
ATOM      2  O   UNL     1      46.747  72.419  41.963  0.00  0.00    -0.218 OA
ENDROOT
BRANCH   1   3
ATOM      3  C   UNL     1      45.422  74.052  42.979  0.00  0.00    +0.202 C 
ATOM      4  O   UNL     1      44.731  73.141  43.804  0.00  0.00    -0.219 OA
BRANCH   3   5
ATOM      5  C   UNL     1      44.647  74.177  41.713  0.00  0.00    +0.124 C 
BRANCH   5   7
ATOM      6  C   UNL     1      44.356  73.227  39.528  0.00  0.00    +0.108 C 
ATOM      7  N   UNL     1      45.121  73.184  40.762  0.00  0.00    -0.214 NA
ENDBRANCH   5   7
ENDBRANCH   3   5
ENDBRANCH   1   3
BRANCH   1   8
ATOM      8  C   UNL     1      47.490  73.207  44.107  0.00  0.00    +0.217 C 
ATOM      9  O   UNL     1      47.597  74.351  44.891  0.00  0.00    -0.217 OA
BRANCH   8  10
ATOM     10  C   UNL     1      48.868  72.635  43.921  0.00  0.00    +0.217 C 
ATOM     11  O   UNL     1      49.393  72.839  42.670  0.00  0.00    -0.217 OA
BRANCH  10  12
ATOM     12  C   UNL     1      49.813  73.178  44.971  0.00  0.00    +0.217 C 
ATOM     13  O   UNL     1      50.647  72.175  45.461  0.00  0.00    -0.217 OA
ENDBRANCH  10  12
ENDBRANCH   8  10
ENDBRANCH   1   8
TORSDOF 6
REMARK  Name = Iodoxamate_Meglumine
REMARK  31 active torsions:
REMARK  status: ('A' for Active; 'I' for Inactive)
REMARK    1  A    between atoms: N_2  and  C_3
REMARK    2  A    between atoms: C_3  and  C_4
REMARK    3  A    between atoms: C_4  and  C_5
REMARK    4  A    between atoms: C_5  and  C_6
REMARK    5  A    between atoms: C_6  and  C_7
REMARK    6  A    between atoms: C_7  and  C_8
REMARK    7  A    between atoms: N_15  and  C_16
REMARK    8  A    between atoms: C_16  and  C_17
REMARK    9  A    between atoms: C_17  and  C_18
REMARK   10  A    between atoms: C_18  and  C_19
REMARK   11  A    between atoms: C_19  and  C_20
REMARK   12  A    between atoms: C_20  and  C_21
REMARK   13  A    between atoms: C_29  and  C_67
REMARK   14  A    between atoms: C_31  and  N_34
REMARK   15  A    between atoms: C_35  and  C_37
REMARK   16  A    between atoms: C_37  and  C_38
REMARK   17  A    between atoms: C_38  and  O_39
REMARK   18  A    between atoms: O_39  and  C_40
REMARK   19  A    between atoms: C_40  and  C_41
REMARK   20  A    between atoms: C_41  and  O_42
REMARK   21  A    between atoms: O_42  and  C_43
REMARK   22  A    between atoms: C_43  and  C_44
REMARK   23  A    between atoms: C_44  and  O_45
REMARK   24  A    between atoms: O_45  and  C_46
REMARK   25  A    between atoms: C_46  and  C_47
REMARK   26  A    between atoms: C_47  and  O_48
REMARK   27  A    between atoms: O_48  and  C_49
REMARK   28  A    between atoms: C_49  and  C_50
REMARK   29  A    between atoms: C_50  and  C_51
REMARK   30  A    between atoms: N_53  and  C_54
REMARK   31  A    between atoms: C_58  and  C_61
REMARK                            x       y       z     vdW  Elec       q    Type
REMARK                         _______ _______ _______ _____ _____    ______ ____
ROOT
ATOM      1  C   UNL     1      47.168  73.929  43.142  0.00  0.00    +0.216 C 
ATOM      2  O   UNL     1      48.242  74.615  42.564  0.00  0.00    -0.218 OA
ENDROOT
BRANCH   1   3
ATOM      3  C   UNL     1      47.841  72.981  44.143  0.00  0.00    +0.202 C 
ATOM      4  O   UNL     1      48.465  73.863  45.064  0.00  0.00    -0.219 OA
BRANCH   3   5
ATOM      5  C   UNL     1      48.851  72.081  43.522  0.00  0.00    +0.124 C 
BRANCH   5   7
ATOM      6  C   UNL     1      49.144  70.733  41.562  0.00  0.00    +0.108 C 
ATOM      7  N   UNL     1      48.353  71.778  42.173  0.00  0.00    -0.214 NA
ENDBRANCH   5   7
ENDBRANCH   3   5
ENDBRANCH   1   3
BRANCH   1   8
ATOM      8  C   UNL     1      46.172  74.839  43.770  0.00  0.00    +0.217 C 
ATOM      9  O   UNL     1      45.285  74.119  44.519  0.00  0.00    -0.217 OA
BRANCH   8  10
ATOM     10  C   UNL     1      45.533  75.794  42.802  0.00  0.00    +0.217 C 
ATOM     11  O   UNL     1      44.921  75.119  41.731  0.00  0.00    -0.217 OA
BRANCH  10  12
ATOM     12  C   UNL     1      44.493  76.673  43.416  0.00  0.00    +0.217 C 
ATOM     13  O   UNL     1      43.495  76.882  42.462  0.00  0.00    -0.217 OA
ENDBRANCH  10  12
ENDBRANCH   8  10
ENDBRANCH   1   8
TORSDOF 6
REMARK  Name = Iodoxamate_Meglumine
REMARK  31 active torsions:
REMARK  status: ('A' for Active; 'I' for Inactive)
REMARK    1  A    between atoms: N_2  and  C_3
REMARK    2  A    between atoms: C_3  and  C_4
REMARK    3  A    between atoms: C_4  and  C_5
REMARK    4  A    between atoms: C_5  and  C_6
REMARK    5  A    between atoms: C_6  and  C_7
REMARK    6  A    between atoms: C_7  and  C_8
REMARK    7  A    between atoms: N_15  and  C_16
REMARK    8  A    between atoms: C_16  and  C_17
REMARK    9  A    between atoms: C_17  and  C_18
REMARK   10  A    between atoms: C_18  and  C_19
REMARK   11  A    between atoms: C_19  and  C_20
REMARK   12  A    between atoms: C_20  and  C_21
REMARK   13  A    between atoms: C_29  and  C_67
REMARK   14  A    between atoms: C_31  and  N_34
REMARK   15  A    between atoms: C_35  and  C_37
REMARK   16  A    between atoms: C_37  and  C_38
REMARK   17  A    between atoms: C_38  and  O_39
REMARK   18  A    between atoms: O_39  and  C_40
REMARK   19  A    between atoms: C_40  and  C_41
REMARK   20  A    between atoms: C_41  and  O_42
REMARK   21  A    between atoms: O_42  and  C_43
REMARK   22  A    between atoms: C_43  and  C_44
REMARK   23  A    between atoms: C_44  and  O_45
REMARK   24  A    between atoms: O_45  and  C_46
REMARK   25  A    between atoms: C_46  and  C_47
REMARK   26  A    between atoms: C_47  and  O_48
REMARK   27  A    between atoms: O_48  and  C_49
REMARK   28  A    between atoms: C_49  and  C_50
REMARK   29  A    between atoms: C_50  and  C_51
REMARK   30  A    between atoms: N_53  and  C_54
REMARK   31  A    between atoms: C_58  and  C_61
REMARK                            x       y       z     vdW  Elec       q    Type
REMARK                         _______ _______ _______ _____ _____    ______ ____
ROOT
ATOM      1  C   UNL     1      45.711  75.937  44.207  0.00  0.00    +0.174 C 
ENDROOT
BRANCH   1   2
ATOM      2  O   UNL     1      44.672  75.563  44.965  0.00  0.00    -0.348 OA
BRANCH   2   3
ATOM      3  C   UNL     1      43.678  74.795  44.504  0.00  0.00    +0.174 C 
BRANCH   3   4
ATOM      4  C   UNL     1      42.880  75.429  43.418  0.00  0.00    +0.174 C 
BRANCH   4   5
ATOM      5  O   UNL     1      43.600  75.756  42.298  0.00  0.00    -0.351 OA
BRANCH   5   6
ATOM      6  C   UNL     1      42.778  76.272  41.293  0.00  0.00    +0.152 C 
BRANCH   6   7
ATOM      7  C   UNL     1      43.589  76.624  40.090  0.00  0.00    +0.119 C 
BRANCH   7   9
ATOM      8  N   UNL     1      45.507  78.101  39.306  0.00  0.00    -0.178 NA
ATOM      9  C   UNL     1      44.597  77.680  40.314  0.00  0.00    +0.248 C 
ATOM     10  O   UNL     1      44.656  78.232  41.432  0.00  0.00    -0.273 OA
BRANCH   8  15
ATOM     11  C   UNL     1      48.736  79.784  39.890  0.00  0.00    +0.013 A 
ATOM     12  C   UNL     1      48.344  81.103  39.937  0.00  0.00    +0.037 A 
ATOM     13  C   UNL     1      47.023  81.466  39.779  0.00  0.00    +0.092 A 
ATOM     14  C   UNL     1      46.106  80.452  39.572  0.00  0.00    +0.053 A 
ATOM     15  C   UNL     1      46.476  79.115  39.521  0.00  0.00    +0.084 A 
ATOM     16  C   UNL     1      47.810  78.784  39.682  0.00  0.00    +0.046 A 
ATOM     17  I   UNL     1      48.379  76.754  39.597  0.00  0.00    -0.041 I 
ATOM     18  I   UNL     1      44.082  80.984  39.330  0.00  0.00    -0.041 I 
ATOM     19  I   UNL     1      49.749  82.648  40.258  0.00  0.00    -0.042 I 
BRANCH  13  20
ATOM     20  C   UNL     1      46.582  82.846  39.827  0.00  0.00    +0.389 C 
ATOM     21  O   UNL     1      45.815  83.260  40.726  0.00  0.00    -0.241 OA
ATOM     22  O   UNL     1      47.010  83.745  38.865  0.00  0.00    -0.241 OA
ENDBRANCH  13  20
ENDBRANCH   8  15
ENDBRANCH   7   9
ENDBRANCH   6   7
ENDBRANCH   5   6
ENDBRANCH   4   5
ENDBRANCH   3   4
ENDBRANCH   2   3
ENDBRANCH   1   2
BRANCH   1  23
ATOM     23  C   UNL     1      46.539  74.806  43.648  0.00  0.00    +0.174 C 
BRANCH  23  24
ATOM     24  O   UNL     1      47.063  74.057  44.709  0.00  0.00    -0.348 OA
BRANCH  24  25
ATOM     25  C   UNL     1      47.821  73.016  44.183  0.00  0.00    +0.174 C 
BRANCH  25  26
ATOM     26  C   UNL     1      48.424  72.176  45.306  0.00  0.00    +0.174 C 
BRANCH  26  27
ATOM     27  O   UNL     1      49.182  71.133  44.845  0.00  0.00    -0.351 OA
BRANCH  27  28
ATOM     28  C   UNL     1      48.486  70.231  44.064  0.00  0.00    +0.152 C 
BRANCH  28  29
ATOM     29  C   UNL     1      47.327  69.602  44.824  0.00  0.00    +0.119 C 
BRANCH  29  30
ATOM     30  C   UNL     1      47.831  68.889  46.014  0.00  0.00    +0.248 C 
ATOM     31  O   UNL     1      49.047  68.830  46.325  0.00  0.00    -0.273 OA
ATOM     32  N   UNL     1      46.898  68.230  46.858  0.00  0.00    -0.178 NA
BRANCH  32  33
ATOM     33  C   UNL     1      47.369  67.540  48.010  0.00  0.00    +0.084 A 
ATOM     34  C   UNL     1      46.499  67.190  49.009  0.00  0.00    +0.046 A 
ATOM     35  C   UNL     1      46.961  66.523  50.114  0.00  0.00    +0.013 A 
ATOM     36  C   UNL     1      48.297  66.208  50.217  0.00  0.00    +0.037 A 
ATOM     37  C   UNL     1      49.189  66.551  49.222  0.00  0.00    +0.092 A 
ATOM     38  C   UNL     1      48.727  67.218  48.116  0.00  0.00    +0.053 A 
ATOM     39  I   UNL     1      50.032  67.772  46.578  0.00  0.00    -0.041 I 
ATOM     40  I   UNL     1      49.008  65.187  51.912  0.00  0.00    -0.042 I 
ATOM     41  I   UNL     1      44.447  67.692  48.826  0.00  0.00    -0.041 I 
BRANCH  37  42
ATOM     42  C   UNL     1      50.596  66.205  49.352  0.00  0.00    +0.389 C 
ATOM     43  O   UNL     1      51.454  67.052  49.036  0.00  0.00    -0.241 OA
ATOM     44  O   UNL     1      50.959  64.957  49.816  0.00  0.00    -0.241 OA
ENDBRANCH  37  42
ENDBRANCH  32  33
ENDBRANCH  29  30
ENDBRANCH  28  29
ENDBRANCH  27  28
ENDBRANCH  26  27
ENDBRANCH  25  26
ENDBRANCH  24  25
ENDBRANCH  23  24
ENDBRANCH   1  23
TORSDOF 19
