REMARK  Name = Iodoquinol
REMARK  0 active torsions:
REMARK  status: ('A' for Active; 'I' for Inactive)
REMARK                            x       y       z     vdW  Elec       q    Type
REMARK                         _______ _______ _______ _____ _____    ______ ____
ROOT
ATOM      1  C   UNL     1      43.310  77.865  39.815  0.00  0.00    +0.021 A 
ATOM      2  C   UNL     1      44.429  78.206  40.547  0.00  0.00    +0.004 A 
ATOM      3  C   UNL     1      45.151  79.332  40.253  0.00  0.00    +0.026 A 
ATOM      4  C   UNL     1      44.728  80.119  39.202  0.00  0.00    +0.121 A 
ATOM      5  C   UNL     1      45.472  81.258  38.916  0.00  0.00    +0.218 A 
ATOM      6  C   UNL     1      46.601  81.596  39.658  0.00  0.00    +0.071 A 
ATOM      7  C   UNL     1      46.980  80.775  40.698  0.00  0.00    +0.015 A 
ATOM      8  C   UNL     1      46.271  79.635  41.015  0.00  0.00    +0.032 A 
ATOM      9  I   UNL     1      46.836  78.364  42.605  0.00  0.00    -0.042 I 
ATOM     10  I   UNL     1      47.722  83.316  39.225  0.00  0.00    -0.039 I 
ATOM     11  O   UNL     1      45.058  82.060  37.861  0.00  0.00    -0.285 OA
ATOM     12  N   UNL     1      43.633  79.794  38.479  0.00  0.00    -0.241 NA
ATOM     13  C   UNL     1      42.930  78.689  38.773  0.00  0.00    +0.099 A 
ENDROOT
TORSDOF 0
