REMARK  Name = Ioflupane_i-123
REMARK  6 active torsions:
REMARK  status: ('A' for Active; 'I' for Inactive)
REMARK    1  A    between atoms: O_2  and  C_3
REMARK    2  A    between atoms: C_3  and  C_5
REMARK    3  A    between atoms: N_10  and  C_11
REMARK    4  A    between atoms: C_11  and  C_12
REMARK    5  A    between atoms: C_12  and  C_13
REMARK    6  A    between atoms: C_16  and  C_17
REMARK                            x       y       z     vdW  Elec       q    Type
REMARK                         _______ _______ _______ _____ _____    ______ ____
ROOT
ATOM      1  C   UNL     1      46.643  82.417  40.641  0.00  0.00    +0.118 C 
ATOM      2  C   UNL     1      45.561  81.380  40.851  0.00  0.00    +0.068 C 
ATOM      3  C   UNL     1      44.721  81.233  39.584  0.00  0.00    +0.018 C 
ATOM      4  C   UNL     1      45.646  80.381  38.733  0.00  0.00    +0.017 C 
ATOM      5  C   UNL     1      46.646  79.792  39.721  0.00  0.00    +0.058 C 
ATOM      6  N   UNL     1      46.091  80.047  40.981  0.00  0.00    -0.275 NA
ATOM      7  C   UNL     1      47.950  80.542  39.581  0.00  0.00    +0.021 C 
ATOM      8  C   UNL     1      47.971  81.886  40.265  0.00  0.00    +0.036 C 
ENDROOT
BRANCH   8   9
ATOM      9  C   UNL     1      49.033  81.980  41.287  0.00  0.00    -0.022 A 
ATOM     10  C   UNL     1      50.193  82.679  41.072  0.00  0.00    -0.004 A 
ATOM     11  C   UNL     1      51.201  82.780  42.045  0.00  0.00    +0.005 A 
ATOM     12  C   UNL     1      51.056  82.169  43.267  0.00  0.00    +0.030 A 
ATOM     13  C   UNL     1      49.904  81.463  43.505  0.00  0.00    +0.005 A 
ATOM     14  C   UNL     1      48.922  81.370  42.548  0.00  0.00    -0.004 A 
ATOM     15  I   UNL     1      52.582  82.327  44.727  0.00  0.00    -0.043 I 
ENDBRANCH   8   9
BRANCH   1  16
ATOM     16  C   UNL     1      46.661  83.286  41.836  0.00  0.00    +0.318 C 
ATOM     17  O   UNL     1      45.911  83.058  42.794  0.00  0.00    -0.250 OA
BRANCH  16  19
ATOM     18  C   UNL     1      47.449  85.344  42.967  0.00  0.00    +0.256 C 
ATOM     19  O   UNL     1      47.508  84.386  41.941  0.00  0.00    -0.444 OA
ENDBRANCH  16  19
ENDBRANCH   1  16
BRANCH   6  20
ATOM     20  C   UNL     1      45.150  79.179  41.542  0.00  0.00    +0.075 C 
BRANCH  20  21
ATOM     21  C   UNL     1      44.900  77.894  40.812  0.00  0.00    +0.055 C 
BRANCH  21  22
ATOM     22  C   UNL     1      43.417  77.602  40.910  0.00  0.00    +0.195 C 
ATOM     23  F   UNL     1      42.842  77.885  39.683  0.00  0.00    -0.234 F 
ENDBRANCH  21  22
ENDBRANCH  20  21
ENDBRANCH   6  20
TORSDOF 6
