REMARK  Name = Iopanoic_acid
REMARK  4 active torsions:
REMARK  status: ('A' for Active; 'I' for Inactive)
REMARK    1  A    between atoms: C_2  and  C_3
REMARK    2  A    between atoms: C_3  and  C_4
REMARK    3  A    between atoms: C_3  and  C_15
REMARK    4  A    between atoms: C_4  and  C_5
REMARK                            x       y       z     vdW  Elec       q    Type
REMARK                         _______ _______ _______ _____ _____    ______ ____
ROOT
ATOM      1  C   UNL     1      48.538  81.614  42.400  0.00  0.00    -0.010 A 
ATOM      2  C   UNL     1      48.452  80.391  41.786  0.00  0.00    +0.044 A 
ATOM      3  C   UNL     1      47.294  80.097  41.062  0.00  0.00    +0.099 A 
ATOM      4  C   UNL     1      46.265  80.999  40.954  0.00  0.00    +0.048 A 
ATOM      5  C   UNL     1      46.326  82.239  41.554  0.00  0.00    +0.013 A 
ATOM      6  C   UNL     1      47.463  82.521  42.263  0.00  0.00    +0.027 A 
ATOM      7  I   UNL     1      47.649  84.502  43.015  0.00  0.00    -0.043 I 
ATOM      8  I   UNL     1      44.567  80.475  39.853  0.00  0.00    -0.041 I 
ATOM      9  N   UNL     1      47.224  78.803  40.431  0.00  0.00    -0.127 NA
ATOM     10  I   UNL     1      50.047  78.992  41.715  0.00  0.00    -0.041 I 
ENDROOT
BRANCH   1  11
ATOM     11  C   UNL     1      49.679  81.977  43.226  0.00  0.00    +0.038 C 
BRANCH  11  12
ATOM     12  C   UNL     1      50.765  82.827  42.780  0.00  0.00    +0.108 C 
BRANCH  12  13
ATOM     13  C   UNL     1      51.868  83.104  43.745  0.00  0.00    +0.365 C 
ATOM     14  O   UNL     1      53.059  82.984  43.450  0.00  0.00    -0.246 OA
ATOM     15  O   UNL     1      51.608  83.525  45.065  0.00  0.00    -0.246 OA
ENDBRANCH  12  13
BRANCH  12  17
ATOM     16  C   UNL     1      50.642  83.583  40.417  0.00  0.00    +0.001 C 
ATOM     17  C   UNL     1      51.406  82.661  41.434  0.00  0.00    +0.012 C 
ENDBRANCH  12  17
ENDBRANCH  11  12
ENDBRANCH   1  11
TORSDOF 4
