REMARK  Name = Iopamidol
REMARK  10 active torsions:
REMARK  status: ('A' for Active; 'I' for Inactive)
REMARK    1  A    between atoms: C_2  and  C_3
REMARK    2  A    between atoms: N_5  and  C_6
REMARK    3  A    between atoms: C_8  and  C_22
REMARK    4  A    between atoms: C_10  and  C_13
REMARK    5  A    between atoms: N_15  and  CA_16
REMARK    6  A    between atoms: CA_16  and  CB_17
REMARK    7  A    between atoms: CA_16  and  C_19
REMARK    8  A    between atoms: N_24  and  CA_25
REMARK    9  A    between atoms: CA_25  and  CB_26
REMARK   10  A    between atoms: CA_25  and  C_28
REMARK                            x       y       z     vdW  Elec       q    Type
REMARK                         _______ _______ _______ _____ _____    ______ ____
ROOT
ATOM      1  C   UNK A   0      46.446  79.875  40.502  0.00  0.00    +0.084 A 
ATOM      2  C   UNK A   0      45.478  80.098  39.533  0.00  0.00    +0.051 A 
ATOM      3  C   UNK A   0      44.378  79.285  39.456  0.00  0.00    +0.067 A 
ATOM      4  C   UNK A   0      44.268  78.224  40.383  0.00  0.00    +0.040 A 
ATOM      5  C   UNK A   0      45.194  77.961  41.350  0.00  0.00    +0.067 A 
ATOM      6  C   UNK A   0      46.298  78.838  41.376  0.00  0.00    +0.051 A 
ATOM      7  I   UNK A   0      47.790  78.534  42.828  0.00  0.00    -0.041 I 
ATOM      8  I   UNK A   0      42.478  77.084  40.247  0.00  0.00    -0.042 I 
ATOM      9  I   UNK A   0      45.770  81.655  38.118  0.00  0.00    -0.041 I 
ENDROOT
BRANCH   1  12
ATOM     10  C   UNK A   0      47.540  81.879  41.375  0.00  0.00    +0.276 C 
ATOM     11  O   UNK A   0      46.535  82.088  42.091  0.00  0.00    -0.270 OA
ATOM     12  N   UNK A   0      47.564  80.756  40.536  0.00  0.00    -0.176 NA
BRANCH  10  14
ATOM     13  C   UNK A   0      49.958  81.991  41.267  0.00  0.00    +0.046 C 
ATOM     14  C   UNK A   0      48.685  82.818  41.424  0.00  0.00    +0.229 C 
ATOM     15  O   UNK A   0      48.754  83.462  42.659  0.00  0.00    -0.213 OA
ENDBRANCH  10  14
ENDBRANCH   1  12
BRANCH   5  16
ATOM     16  C   UNK A   0      45.181  76.862  42.285  0.00  0.00    +0.266 C 
ATOM     17  O   UNK A   0      45.189  77.170  43.535  0.00  0.00    -0.268 OA
ATOM     18  N   SER A   1      45.165  75.485  42.015  0.00  0.00    -0.198 NA
BRANCH  18  19
ATOM     19  CA  SER A   1      45.101  74.508  43.122  0.00  0.00    +0.161 C 
BRANCH  19  20
ATOM     20  CB  SER A   1      43.728  74.529  43.757  0.00  0.00    +0.206 C 
ATOM     21  OG  SER A   1      42.727  74.174  42.866  0.00  0.00    -0.218 OA
ENDBRANCH  19  20
BRANCH  19  22
ATOM     22  C   SER A   1      45.494  73.140  42.665  0.00  0.00    +0.206 C 
ATOM     23  O   SER A   1      46.827  73.184  42.290  0.00  0.00    -0.218 OA
ENDBRANCH  19  22
ENDBRANCH  18  19
ENDBRANCH   5  16
BRANCH   3  24
ATOM     24  C   UNK A   0      43.258  79.438  38.551  0.00  0.00    +0.266 C 
ATOM     25  O   UNK A   0      43.418  80.049  37.429  0.00  0.00    -0.268 OA
ATOM     26  N   SER A   1      41.968  78.965  38.772  0.00  0.00    -0.198 NA
BRANCH  26  27
ATOM     27  CA  SER A   1      40.916  79.016  37.753  0.00  0.00    +0.161 C 
BRANCH  27  28
ATOM     28  CB  SER A   1      39.631  78.474  38.343  0.00  0.00    +0.206 C 
ATOM     29  OG  SER A   1      39.271  79.321  39.385  0.00  0.00    -0.218 OA
ENDBRANCH  27  28
BRANCH  27  30
ATOM     30  C   SER A   1      41.269  78.228  36.539  0.00  0.00    +0.206 C 
ATOM     31  O   SER A   1      41.336  76.864  36.824  0.00  0.00    -0.218 OA
ENDBRANCH  27  30
ENDBRANCH  26  27
ENDBRANCH   3  24
TORSDOF 10
