REMARK  Name = Iophendylate
REMARK  12 active torsions:
REMARK  status: ('A' for Active; 'I' for Inactive)
REMARK    1  A    between atoms: C_2  and  O_3
REMARK    2  A    between atoms: O_3  and  C_4
REMARK    3  A    between atoms: C_4  and  C_6
REMARK    4  A    between atoms: C_6  and  C_7
REMARK    5  A    between atoms: C_7  and  C_8
REMARK    6  A    between atoms: C_8  and  C_9
REMARK    7  A    between atoms: C_9  and  C_10
REMARK    8  A    between atoms: C_10  and  C_11
REMARK    9  A    between atoms: C_11  and  C_12
REMARK   10  A    between atoms: C_12  and  C_13
REMARK   11  A    between atoms: C_13  and  C_14
REMARK   12  A    between atoms: C_14  and  C_16
REMARK                            x       y       z     vdW  Elec       q    Type
REMARK                         _______ _______ _______ _____ _____    ______ ____
ROOT
ATOM      1  C   UNL     1      46.338  81.350  40.909  0.00  0.00    +0.000 C 
ENDROOT
BRANCH   1   2
ATOM      2  C   UNL     1      45.880  81.887  39.556  0.00  0.00    +0.000 C 
BRANCH   2   3
ATOM      3  C   UNL     1      45.410  80.800  38.648  0.00  0.00    +0.000 C 
BRANCH   3   4
ATOM      4  C   UNL     1      44.518  79.791  39.317  0.00  0.00    +0.001 C 
BRANCH   4   5
ATOM      5  C   UNL     1      43.465  79.230  38.434  0.00  0.00    +0.012 C 
BRANCH   5   6
ATOM      6  C   UNL     1      42.605  78.273  39.212  0.00  0.00    +0.110 C 
BRANCH   6   7
ATOM      7  C   UNL     1      41.517  77.648  38.467  0.00  0.00    +0.317 C 
ATOM      8  O   UNL     1      41.250  78.117  37.311  0.00  0.00    -0.250 OA
BRANCH   7   9
ATOM      9  O   UNL     1      40.751  76.590  38.903  0.00  0.00    -0.448 OA
BRANCH   9  11
ATOM     10  C   UNL     1      39.727  74.723  37.759  0.00  0.00    +0.051 C 
ATOM     11  C   UNL     1      39.583  76.136  38.260  0.00  0.00    +0.209 C 
ENDBRANCH   9  11
ENDBRANCH   7   9
ENDBRANCH   6   7
ENDBRANCH   5   6
ENDBRANCH   4   5
ENDBRANCH   3   4
ENDBRANCH   2   3
ENDBRANCH   1   2
BRANCH   1  12
ATOM     12  C   UNL     1      47.774  81.760  41.069  0.00  0.00    +0.000 C 
BRANCH  12  13
ATOM     13  C   UNL     1      47.948  83.193  41.496  0.00  0.00    +0.004 C 
BRANCH  13  14
ATOM     14  C   UNL     1      48.417  83.326  42.916  0.00  0.00    +0.023 C 
ATOM     15  C   UNL     1      48.118  84.678  43.489  0.00  0.00    +0.005 C 
BRANCH  14  16
ATOM     16  C   UNL     1      49.911  83.162  42.896  0.00  0.00    -0.017 A 
ATOM     17  C   UNL     1      50.674  83.527  41.807  0.00  0.00    -0.004 A 
ATOM     18  C   UNL     1      52.047  83.370  41.800  0.00  0.00    -0.000 A 
ATOM     19  C   UNL     1      52.672  82.839  42.901  0.00  0.00    +0.000 A 
ATOM     20  C   UNL     1      51.929  82.463  44.012  0.00  0.00    +0.005 A 
ATOM     21  C   UNL     1      50.560  82.625  44.005  0.00  0.00    +0.026 A 
ATOM     22  I   UNL     1      49.405  82.056  45.697  0.00  0.00    -0.043 I 
ENDBRANCH  14  16
ENDBRANCH  13  14
ENDBRANCH  12  13
ENDBRANCH   1  12
TORSDOF 12
