REMARK  Name = Iopromide
REMARK  11 active torsions:
REMARK  status: ('A' for Active; 'I' for Inactive)
REMARK    1  A    between atoms: N_2  and  C_3
REMARK    2  A    between atoms: C_3  and  C_4
REMARK    3  A    between atoms: C_4  and  C_5
REMARK    4  A    between atoms: C_8  and  C_10
REMARK    5  A    between atoms: C_12  and  N_26
REMARK    6  A    between atoms: C_14  and  C_17
REMARK    7  A    between atoms: N_19  and  C_20
REMARK    8  A    between atoms: C_20  and  C_21
REMARK    9  A    between atoms: C_21  and  C_22
REMARK   10  A    between atoms: C_27  and  C_29
REMARK   11  A    between atoms: C_29  and  O_30
REMARK                            x       y       z     vdW  Elec       q    Type
REMARK                         _______ _______ _______ _____ _____    ______ ____
ROOT
ATOM      1  C   UNL     1      44.856  77.847  41.501  0.00  0.00    +0.066 A 
ATOM      2  C   UNL     1      44.028  77.926  40.403  0.00  0.00    +0.051 A 
ATOM      3  C   UNL     1      44.171  78.924  39.464  0.00  0.00    +0.084 A 
ATOM      4  C   UNL     1      45.170  79.827  39.673  0.00  0.00    +0.051 A 
ATOM      5  C   UNL     1      46.044  79.786  40.782  0.00  0.00    +0.067 A 
ATOM      6  C   UNL     1      45.865  78.787  41.682  0.00  0.00    +0.040 A 
ATOM      7  I   UNL     1      47.016  78.625  43.448  0.00  0.00    -0.042 I 
ATOM      8  I   UNL     1      45.421  81.368  38.263  0.00  0.00    -0.041 I 
ATOM      9  I   UNL     1      42.499  76.518  40.111  0.00  0.00    -0.041 I 
ENDROOT
BRANCH   1  12
ATOM     10  C   UNL     1      45.907  75.215  41.011  0.00  0.00    +0.115 C 
ATOM     11  N   UNL     1      45.171  75.484  42.234  0.00  0.00    -0.272 N 
ATOM     12  C   UNL     1      44.697  76.793  42.488  0.00  0.00    +0.250 C 
ATOM     13  O   UNL     1      44.125  77.093  43.568  0.00  0.00    -0.270 OA
BRANCH  11  14
ATOM     14  C   UNL     1      44.949  74.413  43.179  0.00  0.00    +0.129 C 
BRANCH  14  15
ATOM     15  C   UNL     1      45.446  73.130  42.601  0.00  0.00    +0.204 C 
ATOM     16  O   UNL     1      44.635  72.768  41.547  0.00  0.00    -0.218 OA
BRANCH  15  17
ATOM     17  C   UNL     1      45.489  72.023  43.634  0.00  0.00    +0.217 C 
ATOM     18  O   UNL     1      46.063  70.865  43.117  0.00  0.00    -0.218 OA
ENDBRANCH  15  17
ENDBRANCH  14  15
ENDBRANCH  11  14
ENDBRANCH   1  12
BRANCH   5  19
ATOM     19  C   UNL     1      47.039  80.844  40.889  0.00  0.00    +0.266 C 
ATOM     20  O   UNL     1      46.629  82.024  40.588  0.00  0.00    -0.268 OA
ATOM     21  N   UNL     1      48.373  80.737  41.270  0.00  0.00    -0.199 NA
BRANCH  21  22
ATOM     22  C   UNL     1      49.372  81.774  41.298  0.00  0.00    +0.151 C 
BRANCH  22  23
ATOM     23  C   UNL     1      50.700  81.399  41.844  0.00  0.00    +0.206 C 
ATOM     24  O   UNL     1      50.648  81.039  43.157  0.00  0.00    -0.218 OA
BRANCH  23  25
ATOM     25  C   UNL     1      51.639  82.609  41.751  0.00  0.00    +0.217 C 
ATOM     26  O   UNL     1      51.569  83.358  42.923  0.00  0.00    -0.218 OA
ENDBRANCH  23  25
ENDBRANCH  22  23
ENDBRANCH  21  22
ENDBRANCH   5  19
BRANCH   3  27
ATOM     27  N   UNL     1      43.320  78.990  38.342  0.00  0.00    -0.176 NA
ATOM     28  C   UNL     1      42.093  79.720  38.319  0.00  0.00    +0.276 C 
ATOM     29  O   UNL     1      42.025  80.770  38.981  0.00  0.00    -0.270 OA
BRANCH  28  30
ATOM     30  C   UNL     1      41.003  79.141  37.494  0.00  0.00    +0.229 C 
BRANCH  30  31
ATOM     31  O   UNL     1      41.349  78.027  36.781  0.00  0.00    -0.342 OA
ATOM     32  C   UNL     1      40.361  77.462  36.015  0.00  0.00    +0.175 C 
ENDBRANCH  30  31
ENDBRANCH  28  30
ENDBRANCH   3  27
TORSDOF 11
