REMARK  Name = Ioversol
REMARK  12 active torsions:
REMARK  status: ('A' for Active; 'I' for Inactive)
REMARK    1  A    between atoms: C_1  and  C_2
REMARK    2  A    between atoms: C_1  and  N_4
REMARK    3  A    between atoms: N_4  and  C_5
REMARK    4  A    between atoms: C_7  and  C_21
REMARK    5  A    between atoms: C_9  and  C_12
REMARK    6  A    between atoms: N_14  and  C_15
REMARK    7  A    between atoms: C_15  and  C_16
REMARK    8  A    between atoms: C_16  and  C_17
REMARK    9  A    between atoms: N_23  and  C_24
REMARK   10  A    between atoms: C_24  and  C_25
REMARK   11  A    between atoms: C_25  and  C_26
REMARK   12  A    between atoms: C_30  and  C_32
REMARK                            x       y       z     vdW  Elec       q    Type
REMARK                         _______ _______ _______ _____ _____    ______ ____
ROOT
ATOM      1  C   UNL     1      45.552  78.165  41.587  0.00  0.00    +0.065 A 
ATOM      2  C   UNL     1      46.532  79.119  41.779  0.00  0.00    +0.049 A 
ATOM      3  C   UNL     1      46.609  80.262  41.038  0.00  0.00    +0.067 A 
ATOM      4  C   UNL     1      45.611  80.418  40.045  0.00  0.00    +0.040 A 
ATOM      5  C   UNL     1      44.623  79.502  39.816  0.00  0.00    +0.067 A 
ATOM      6  C   UNL     1      44.601  78.343  40.617  0.00  0.00    +0.049 A 
ATOM      7  I   UNL     1      43.107  76.858  40.343  0.00  0.00    -0.041 I 
ATOM      8  I   UNL     1      45.666  82.224  38.964  0.00  0.00    -0.042 I 
ATOM      9  I   UNL     1      47.912  78.792  43.324  0.00  0.00    -0.041 I 
ENDROOT
BRANCH   1  10
ATOM     10  N   UNL     1      45.466  76.966  42.395  0.00  0.00    -0.253 N 
ATOM     11  C   UNL     1      46.246  75.859  41.986  0.00  0.00    +0.263 C 
ATOM     12  O   UNL     1      46.398  74.906  42.809  0.00  0.00    -0.272 OA
BRANCH  11  13
ATOM     13  C   UNL     1      46.887  75.765  40.649  0.00  0.00    +0.267 C 
ATOM     14  O   UNL     1      47.612  74.584  40.499  0.00  0.00    -0.210 OA
ENDBRANCH  11  13
BRANCH  10  15
ATOM     15  C   UNL     1      44.624  76.823  43.529  0.00  0.00    +0.134 C 
BRANCH  15  16
ATOM     16  C   UNL     1      45.239  76.992  44.892  0.00  0.00    +0.204 C 
ATOM     17  O   UNL     1      44.242  76.605  45.837  0.00  0.00    -0.218 OA
ENDBRANCH  15  16
ENDBRANCH  10  15
ENDBRANCH   1  10
BRANCH   5  18
ATOM     18  C   UNL     1      43.615  79.534  38.787  0.00  0.00    +0.266 C 
ATOM     19  O   UNL     1      43.577  80.591  38.041  0.00  0.00    -0.268 OA
ATOM     20  N   UNL     1      42.671  78.531  38.529  0.00  0.00    -0.199 NA
BRANCH  20  21
ATOM     21  C   UNL     1      41.627  78.610  37.548  0.00  0.00    +0.151 C 
BRANCH  21  22
ATOM     22  C   UNL     1      40.639  77.509  37.495  0.00  0.00    +0.206 C 
ATOM     23  O   UNL     1      40.062  77.177  38.696  0.00  0.00    -0.218 OA
BRANCH  22  24
ATOM     24  C   UNL     1      39.558  77.697  36.441  0.00  0.00    +0.217 C 
ATOM     25  O   UNL     1      38.617  76.698  36.464  0.00  0.00    -0.218 OA
ENDBRANCH  22  24
ENDBRANCH  21  22
ENDBRANCH  20  21
ENDBRANCH   5  18
BRANCH   3  26
ATOM     26  C   UNL     1      47.621  81.292  41.101  0.00  0.00    +0.266 C 
ATOM     27  O   UNL     1      47.371  82.457  40.582  0.00  0.00    -0.268 OA
ATOM     28  N   UNL     1      48.910  81.209  41.669  0.00  0.00    -0.199 NA
BRANCH  28  29
ATOM     29  C   UNL     1      49.936  82.187  41.306  0.00  0.00    +0.151 C 
BRANCH  29  30
ATOM     30  C   UNL     1      51.238  81.897  41.996  0.00  0.00    +0.206 C 
ATOM     31  O   UNL     1      51.052  81.951  43.396  0.00  0.00    -0.218 OA
BRANCH  30  32
ATOM     32  C   UNL     1      52.181  83.049  41.671  0.00  0.00    +0.217 C 
ATOM     33  O   UNL     1      53.462  82.806  42.139  0.00  0.00    -0.218 OA
ENDBRANCH  30  32
ENDBRANCH  29  30
ENDBRANCH  28  29
ENDBRANCH   3  26
TORSDOF 12
