REMARK  Name = Ioxaglate
REMARK  10 active torsions:
REMARK  status: ('A' for Active; 'I' for Inactive)
REMARK    1  A    between atoms: N_4  and  C_6
REMARK    2  A    between atoms: C_8  and  C_39
REMARK    3  A    between atoms: C_10  and  C_13
REMARK    4  A    between atoms: N_15  and  C_16
REMARK    5  A    between atoms: C_16  and  C_17
REMARK    6  A    between atoms: N_19  and  C_20
REMARK    7  A    between atoms: C_22  and  C_31
REMARK    8  A    between atoms: C_24  and  C_27
REMARK    9  A    between atoms: N_33  and  C_34
REMARK   10  A    between atoms: C_34  and  C_35
REMARK                            x       y       z     vdW  Elec       q    Type
REMARK                         _______ _______ _______ _____ _____    ______ ____
ROOT
ATOM      1  C   UNL     1      46.566  81.838  40.096  0.00  0.00    +0.202 C 
ENDROOT
BRANCH   1   4
ATOM      2  C   UNL     1      44.808  80.108  39.628  0.00  0.00    +0.266 C 
ATOM      3  O   UNL     1      44.645  80.742  38.510  0.00  0.00    -0.268 OA
ATOM      4  N   UNL     1      45.769  80.678  40.473  0.00  0.00    -0.192 NA
BRANCH   2   9
ATOM      5  C   UNL     1      43.709  76.858  41.075  0.00  0.00    +0.065 A 
ATOM      6  C   UNL     1      42.487  76.649  40.427  0.00  0.00    +0.049 A 
ATOM      7  C   UNL     1      42.005  77.531  39.498  0.00  0.00    +0.067 A 
ATOM      8  C   UNL     1      42.800  78.655  39.233  0.00  0.00    +0.040 A 
ATOM      9  C   UNL     1      43.992  78.934  39.818  0.00  0.00    +0.067 A 
ATOM     10  C   UNL     1      44.427  77.974  40.767  0.00  0.00    +0.049 A 
ATOM     11  I   UNL     1      46.266  78.323  41.721  0.00  0.00    -0.041 I 
ATOM     12  I   UNL     1      42.083  79.951  37.709  0.00  0.00    -0.042 I 
ATOM     13  I   UNL     1      41.388  74.969  41.012  0.00  0.00    -0.041 I 
BRANCH   5  17
ATOM     14  C   UNL     1      45.002  74.463  40.151  0.00  0.00    +0.095 C 
ATOM     15  C   UNL     1      44.869  74.763  41.605  0.00  0.00    +0.230 C 
ATOM     16  O   UNL     1      45.343  73.922  42.410  0.00  0.00    -0.275 OA
ATOM     17  N   UNL     1      44.228  75.956  42.039  0.00  0.00    -0.256 N 
ATOM     18  C   UNL     1      44.137  76.192  43.465  0.00  0.00    +0.120 C 
ENDBRANCH   5  17
BRANCH   7  19
ATOM     19  C   UNL     1      40.804  77.396  38.721  0.00  0.00    +0.266 C 
ATOM     20  O   UNL     1      39.690  77.703  39.274  0.00  0.00    -0.268 OA
ATOM     21  N   UNL     1      40.717  76.959  37.388  0.00  0.00    -0.200 NA
ATOM     22  C   UNL     1      39.400  76.604  36.799  0.00  0.00    +0.139 C 
ENDBRANCH   7  19
ENDBRANCH   2   9
ENDBRANCH   1   4
BRANCH   1  23
ATOM     23  C   UNL     1      47.481  82.236  41.194  0.00  0.00    +0.268 C 
ATOM     24  O   UNL     1      47.516  81.520  42.226  0.00  0.00    -0.271 OA
ATOM     25  N   UNL     1      48.308  83.383  41.120  0.00  0.00    -0.177 NA
BRANCH  25  26
ATOM     26  C   UNL     1      49.505  83.523  41.878  0.00  0.00    +0.084 A 
ATOM     27  C   UNL     1      49.535  84.070  43.132  0.00  0.00    +0.051 A 
ATOM     28  C   UNL     1      50.722  84.208  43.882  0.00  0.00    +0.067 A 
ATOM     29  C   UNL     1      51.857  83.766  43.289  0.00  0.00    +0.042 A 
ATOM     30  C   UNL     1      51.885  83.200  42.018  0.00  0.00    +0.092 A 
ATOM     31  C   UNL     1      50.695  83.092  41.339  0.00  0.00    +0.053 A 
ATOM     32  I   UNL     1      50.702  82.236  39.400  0.00  0.00    -0.041 I 
ATOM     33  I   UNL     1      53.727  83.970  44.217  0.00  0.00    -0.042 I 
ATOM     34  I   UNL     1      47.746  84.745  44.015  0.00  0.00    -0.041 I 
BRANCH  30  35
ATOM     35  C   UNL     1      53.126  82.736  41.422  0.00  0.00    +0.389 C 
ATOM     36  O   UNL     1      53.809  83.392  40.616  0.00  0.00    -0.241 OA
ATOM     37  O   UNL     1      53.562  81.457  41.797  0.00  0.00    -0.241 OA
ENDBRANCH  30  35
BRANCH  28  38
ATOM     38  C   UNL     1      50.642  84.825  45.170  0.00  0.00    +0.266 C 
ATOM     39  O   UNL     1      49.852  84.255  46.033  0.00  0.00    -0.268 OA
ATOM     40  N   UNL     1      51.287  85.956  45.673  0.00  0.00    -0.199 NA
BRANCH  40  41
ATOM     41  C   UNL     1      51.526  86.169  47.100  0.00  0.00    +0.151 C 
BRANCH  41  42
ATOM     42  C   UNL     1      52.984  85.943  47.415  0.00  0.00    +0.205 C 
ATOM     43  O   UNL     1      53.274  86.210  48.744  0.00  0.00    -0.218 OA
ENDBRANCH  41  42
ENDBRANCH  40  41
ENDBRANCH  28  38
ENDBRANCH  25  26
ENDBRANCH   1  23
TORSDOF 10
