REMARK  Name = IPI-145
REMARK  3 active torsions:
REMARK  status: ('A' for Active; 'I' for Inactive)
REMARK    1  A    between atoms: C_2  and  C_3
REMARK    2  A    between atoms: C_2  and  N_21
REMARK    3  A    between atoms: N_14  and  C_15
REMARK                            x       y       z     vdW  Elec       q    Type
REMARK                         _______ _______ _______ _____ _____    ______ ____
ROOT
ATOM      1  C   UNL     1      48.614  80.111  41.460  0.00  0.00    +0.064 A 
ATOM      2  C   UNL     1      49.733  81.006  41.474  0.00  0.00    +0.015 A 
ATOM      3  C   UNL     1      49.838  81.996  42.410  0.00  0.00    +0.007 A 
ATOM      4  C   UNL     1      48.844  82.120  43.344  0.00  0.00    +0.067 A 
ATOM      5  C   UNL     1      48.918  83.123  44.318  0.00  0.00    +0.062 A 
ATOM      6  C   UNL     1      49.995  83.951  44.297  0.00  0.00    +0.012 A 
ATOM      7  C   UNL     1      50.994  83.826  43.358  0.00  0.00    +0.001 A 
ATOM      8  C   UNL     1      50.928  82.851  42.407  0.00  0.00    +0.000 A 
ATOM      9 CL   UNL     1      47.619  83.234  45.486  0.00  0.00    -0.082 Cl
ATOM     10  C   UNL     1      47.784  81.256  43.314  0.00  0.00    +0.265 A 
ATOM     11  O   UNL     1      46.862  81.365  44.175  0.00  0.00    -0.267 OA
ATOM     12  N   UNL     1      47.676  80.252  42.367  0.00  0.00    -0.277 N 
ENDROOT
BRANCH  12  13
ATOM     13  C   UNL     1      46.536  79.447  42.491  0.00  0.00    +0.067 A 
ATOM     14  C   UNL     1      46.623  78.144  42.902  0.00  0.00    +0.018 A 
ATOM     15  C   UNL     1      45.526  77.308  42.986  0.00  0.00    +0.001 A 
ATOM     16  C   UNL     1      44.293  77.790  42.647  0.00  0.00    +0.000 A 
ATOM     17  C   UNL     1      44.159  79.095  42.228  0.00  0.00    +0.001 A 
ATOM     18  C   UNL     1      45.281  79.906  42.155  0.00  0.00    +0.018 A 
ENDBRANCH  12  13
BRANCH   1  20
ATOM     19  C   UNL     1      49.547  77.965  40.428  0.00  0.00    +0.030 C 
ATOM     20  C   UNL     1      48.639  79.112  40.416  0.00  0.00    +0.132 C 
BRANCH  20  21
ATOM     21  N   UNL     1      48.467  79.700  39.075  0.00  0.00    -0.215 NA
ATOM     22  C   UNL     1      47.165  80.042  38.663  0.00  0.00    +0.170 A 
ATOM     23  N   UNL     1      46.096  79.254  38.843  0.00  0.00    -0.206 NA
ATOM     24  C   UNL     1      44.844  79.550  38.465  0.00  0.00    +0.202 A 
ATOM     25  N   UNL     1      44.624  80.726  37.854  0.00  0.00    -0.203 NA
ATOM     26  C   UNL     1      45.657  81.557  37.645  0.00  0.00    +0.186 A 
ATOM     27  C   UNL     1      46.948  81.265  38.029  0.00  0.00    +0.152 A 
ATOM     28  N   UNL     1      47.785  82.279  37.695  0.00  0.00    -0.218 NA
ATOM     29  C   UNL     1      47.029  83.212  37.101  0.00  0.00    +0.200 A 
ATOM     30  N   UNL     1      45.750  82.791  37.065  0.00  0.00    -0.203 NA
ENDBRANCH  20  21
ENDBRANCH   1  20
TORSDOF 3
