REMARK  Name = Ipodate
REMARK  4 active torsions:
REMARK  status: ('A' for Active; 'I' for Inactive)
REMARK    1  A    between atoms: N_5  and  C_6
REMARK    2  A    between atoms: C_10  and  C_13
REMARK    3  A    between atoms: C_13  and  C_14
REMARK    4  A    between atoms: C_14  and  C_15
REMARK                            x       y       z     vdW  Elec       q    Type
REMARK                         _______ _______ _______ _____ _____    ______ ____
ROOT
ATOM      1  C   UNL     1      46.427  80.704  40.725  0.00  0.00    +0.093 A 
ATOM      2  C   UNL     1      46.638  81.787  39.893  0.00  0.00    +0.049 A 
ATOM      3  C   UNL     1      47.849  82.467  39.903  0.00  0.00    +0.013 A 
ATOM      4  C   UNL     1      48.874  82.085  40.735  0.00  0.00    +0.027 A 
ATOM      5  C   UNL     1      48.684  81.007  41.571  0.00  0.00    -0.009 A 
ATOM      6  C   UNL     1      47.461  80.331  41.554  0.00  0.00    +0.045 A 
ATOM      7  I   UNL     1      47.156  78.680  42.830  0.00  0.00    -0.041 I 
ATOM      8  I   UNL     1      50.664  83.180  40.673  0.00  0.00    -0.043 I 
ATOM      9  I   UNL     1      45.069  82.375  38.617  0.00  0.00    -0.041 I 
ENDROOT
BRANCH   1  14
ATOM     10  C   UNL     1      43.107  77.933  40.797  0.00  0.00    +0.114 C 
ATOM     11  N   UNL     1      43.694  78.516  39.607  0.00  0.00    -0.288 N 
ATOM     12  C   UNL     1      43.065  78.365  38.317  0.00  0.00    +0.114 C 
ATOM     13  C   UNL     1      44.903  79.242  39.716  0.00  0.00    +0.164 C 
ATOM     14  N   UNL     1      45.172  80.050  40.684  0.00  0.00    -0.227 NA
ENDBRANCH   1  14
BRANCH   5  15
ATOM     15  C   UNL     1      49.779  80.582  42.466  0.00  0.00    +0.039 C 
BRANCH  15  16
ATOM     16  C   UNL     1      49.722  81.424  43.725  0.00  0.00    +0.119 C 
BRANCH  16  17
ATOM     17  C   UNL     1      50.806  81.115  44.659  0.00  0.00    +0.365 C 
ATOM     18  O   UNL     1      50.578  80.970  45.874  0.00  0.00    -0.246 OA
ATOM     19  O   UNL     1      52.106  80.978  44.202  0.00  0.00    -0.246 OA
ENDBRANCH  16  17
ENDBRANCH  15  16
ENDBRANCH   5  15
TORSDOF 4
