REMARK  Name = Ipratropium
REMARK  6 active torsions:
REMARK  status: ('A' for Active; 'I' for Inactive)
REMARK    1  A    between atoms: C_2  and  N_4
REMARK    2  A    between atoms: C_10  and  O_12
REMARK    3  A    between atoms: O_12  and  C_13
REMARK    4  A    between atoms: C_13  and  C_15
REMARK    5  A    between atoms: C_15  and  C_16
REMARK    6  A    between atoms: C_15  and  C_18
REMARK                            x       y       z     vdW  Elec       q    Type
REMARK                         _______ _______ _______ _____ _____    ______ ____
ROOT
ATOM      1  N   UNL     1      42.523  77.745  39.242  0.00  0.00    +0.393 N 
ATOM      2  C   UNL     1      43.876  77.378  39.073  0.00  0.00    -0.051 C 
ATOM      3  C   UNL     1      44.096  76.264  40.098  0.00  0.00    -0.022 C 
ATOM      4  C   UNL     1      43.072  76.590  41.151  0.00  0.00    -0.022 C 
ATOM      5  C   UNL     1      42.440  77.861  40.711  0.00  0.00    -0.051 C 
ATOM      6  C   UNL     1      43.171  79.047  41.218  0.00  0.00    +0.023 C 
ATOM      7  C   UNL     1      44.635  78.913  40.864  0.00  0.00    +0.165 C 
ATOM      8  C   UNL     1      44.859  78.459  39.469  0.00  0.00    +0.023 C 
ATOM      9  C   UNL     1      42.213  79.106  38.772  0.00  0.00    -0.095 C 
ENDROOT
BRANCH   1  11
ATOM     10  C   UNL     1      41.705  76.197  37.473  0.00  0.00    -0.022 C 
ATOM     11  C   UNL     1      41.525  76.888  38.785  0.00  0.00    -0.054 C 
ATOM     12  C   UNL     1      40.128  77.540  38.719  0.00  0.00    -0.022 C 
ENDBRANCH   1  11
BRANCH   7  13
ATOM     13  O   UNL     1      45.241  80.152  41.163  0.00  0.00    -0.452 OA
BRANCH  13  14
ATOM     14  C   UNL     1      46.290  80.687  40.409  0.00  0.00    +0.323 C 
ATOM     15  O   UNL     1      47.068  79.833  39.908  0.00  0.00    -0.250 OA
BRANCH  14  16
ATOM     16  C   UNL     1      46.484  82.135  40.205  0.00  0.00    +0.154 C 
BRANCH  16  17
ATOM     17  C   UNL     1      47.494  82.730  41.073  0.00  0.00    -0.009 A 
ATOM     18  C   UNL     1      48.833  82.405  41.047  0.00  0.00    -0.004 A 
ATOM     19  C   UNL     1      49.707  83.025  41.909  0.00  0.00    -0.000 A 
ATOM     20  C   UNL     1      49.300  83.979  42.819  0.00  0.00    -0.000 A 
ATOM     21  C   UNL     1      47.961  84.310  42.851  0.00  0.00    -0.000 A 
ATOM     22  C   UNL     1      47.105  83.685  41.988  0.00  0.00    -0.004 A 
ENDBRANCH  16  17
BRANCH  16  23
ATOM     23  C   UNL     1      46.869  82.457  38.765  0.00  0.00    +0.198 C 
ATOM     24  O   UNL     1      45.768  82.774  37.986  0.00  0.00    -0.219 OA
ENDBRANCH  16  23
ENDBRANCH  14  16
ENDBRANCH  13  14
ENDBRANCH   7  13
TORSDOF 6
