REMARK  Name = Ipriflavone
REMARK  3 active torsions:
REMARK  status: ('A' for Active; 'I' for Inactive)
REMARK    1  A    between atoms: C_2  and  O_4
REMARK    2  A    between atoms: O_4  and  C_5
REMARK    3  A    between atoms: C_13  and  C_16
REMARK                            x       y       z     vdW  Elec       q    Type
REMARK                         _______ _______ _______ _____ _____    ______ ____
ROOT
ATOM      1  C   UNL     1      43.495  79.165  38.929  0.00  0.00    +0.141 A 
ATOM      2  C   UNL     1      44.057  80.353  38.529  0.00  0.00    +0.074 A 
ATOM      3  C   UNL     1      45.106  80.931  39.255  0.00  0.00    +0.151 A 
ATOM      4  C   UNL     1      45.558  80.278  40.380  0.00  0.00    +0.074 A 
ATOM      5  C   UNL     1      44.993  79.090  40.779  0.00  0.00    +0.009 A 
ATOM      6  C   UNL     1      43.962  78.503  40.082  0.00  0.00    +0.037 A 
ATOM      7  C   UNL     1      46.581  80.813  41.115  0.00  0.00    +0.202 A 
ATOM      8  O   UNL     1      47.011  80.227  42.154  0.00  0.00    -0.286 OA
ATOM      9  C   UNL     1      47.140  82.013  40.699  0.00  0.00    +0.077 A 
ATOM     10  C   UNL     1      46.619  82.601  39.549  0.00  0.00    +0.183 A 
ATOM     11  O   UNL     1      45.649  82.065  38.879  0.00  0.00    -0.450 OA
ENDROOT
BRANCH   9  12
ATOM     12  C   UNL     1      48.214  82.621  41.427  0.00  0.00    +0.006 A 
ATOM     13  C   UNL     1      47.999  83.426  42.514  0.00  0.00    +0.000 A 
ATOM     14  C   UNL     1      49.070  83.986  43.180  0.00  0.00    +0.000 A 
ATOM     15  C   UNL     1      50.377  83.764  42.786  0.00  0.00    +0.000 A 
ATOM     16  C   UNL     1      50.594  82.962  41.702  0.00  0.00    +0.000 A 
ATOM     17  C   UNL     1      49.512  82.391  41.024  0.00  0.00    +0.000 A 
ENDBRANCH   9  12
BRANCH   1  18
ATOM     18  O   UNL     1      42.471  78.614  38.209  0.00  0.00    -0.479 OA
BRANCH  18  20
ATOM     19  C   UNL     1      41.340  76.872  37.079  0.00  0.00    +0.047 C 
ATOM     20  C   UNL     1      41.870  77.378  38.414  0.00  0.00    +0.166 C 
ATOM     21  C   UNL     1      40.638  77.545  39.295  0.00  0.00    +0.047 C 
ENDBRANCH  18  20
ENDBRANCH   1  18
TORSDOF 3
