REMARK  Name = Iprodione
REMARK  2 active torsions:
REMARK  status: ('A' for Active; 'I' for Inactive)
REMARK    1  A    between atoms: C_2  and  N_4
REMARK    2  A    between atoms: N_11  and  C_14
REMARK                            x       y       z     vdW  Elec       q    Type
REMARK                         _______ _______ _______ _____ _____    ______ ____
ROOT
ATOM      1  N   UNL     1      44.777  77.723  40.887  0.00  0.00    -0.190 NA
ATOM      2  C   UNL     1      44.493  78.686  39.874  0.00  0.00    +0.331 C 
ATOM      3  O   UNL     1      43.659  78.339  38.998  0.00  0.00    -0.250 OA
ATOM      4  N   UNL     1      45.121  79.961  39.864  0.00  0.00    -0.187 N 
ATOM      5  C   UNL     1      45.003  80.953  38.814  0.00  0.00    +0.190 C 
ATOM      6  C   UNL     1      46.184  81.817  39.059  0.00  0.00    +0.257 C 
ATOM      7  O   UNL     1      46.718  82.605  38.209  0.00  0.00    -0.272 OA
ATOM      8  N   UNL     1      46.640  81.636  40.392  0.00  0.00    -0.190 N 
ATOM      9  C   UNL     1      45.970  80.479  40.880  0.00  0.00    +0.324 C 
ATOM     10  O   UNL     1      46.155  80.034  42.061  0.00  0.00    -0.251 OA
ENDROOT
BRANCH   8  11
ATOM     11  C   UNL     1      47.587  82.461  41.103  0.00  0.00    +0.064 A 
ATOM     12  C   UNL     1      48.950  82.311  40.938  0.00  0.00    +0.027 A 
ATOM     13  C   UNL     1      49.883  83.081  41.600  0.00  0.00    +0.060 A 
ATOM     14  C   UNL     1      49.431  84.054  42.475  0.00  0.00    +0.023 A 
ATOM     15  C   UNL     1      48.086  84.240  42.672  0.00  0.00    +0.060 A 
ATOM     16  C   UNL     1      47.181  83.442  41.984  0.00  0.00    +0.027 A 
ATOM     17 CL   UNL     1      47.533  85.490  43.796  0.00  0.00    -0.082 Cl
ATOM     18 CL   UNL     1      51.618  82.839  41.346  0.00  0.00    -0.082 Cl
ENDBRANCH   8  11
BRANCH   1  20
ATOM     19  C   UNL     1      44.015  76.190  42.589  0.00  0.00    +0.023 C 
ATOM     20  C   UNL     1      43.928  76.560  41.118  0.00  0.00    +0.097 C 
ATOM     21  C   UNL     1      44.312  75.405  40.231  0.00  0.00    +0.023 C 
ENDBRANCH   1  20
TORSDOF 2
