REMARK  Name = Iptacopan
REMARK  7 active torsions:
REMARK  status: ('A' for Active; 'I' for Inactive)
REMARK    1  A    between atoms: C_2  and  O_3
REMARK    2  A    between atoms: O_3  and  C_4
REMARK    3  A    between atoms: N_7  and  C_19
REMARK    4  A    between atoms: C_8  and  C_10
REMARK    5  A    between atoms: C_13  and  C_16
REMARK    6  A    between atoms: C_19  and  C_20
REMARK    7  A    between atoms: C_21  and  O_30
REMARK                            x       y       z     vdW  Elec       q    Type
REMARK                         _______ _______ _______ _____ _____    ______ ____
ROOT
ATOM      1  C   UNL     1      49.084  83.697  43.475  0.00  0.00    +0.118 C 
ATOM      2  C   UNL     1      47.951  83.799  42.466  0.00  0.00    +0.047 C 
ATOM      3  C   UNL     1      47.165  82.528  42.720  0.00  0.00    +0.075 C 
ATOM      4  N   UNL     1      47.855  81.322  42.387  0.00  0.00    -0.266 NA
ATOM      5  C   UNL     1      49.023  81.183  43.116  0.00  0.00    +0.083 C 
ATOM      6  C   UNL     1      49.845  82.452  43.173  0.00  0.00    +0.050 C 
ENDROOT
BRANCH   5   7
ATOM      7  C   UNL     1      49.955  80.106  42.837  0.00  0.00    -0.008 A 
ATOM      8  C   UNL     1      49.640  79.093  41.967  0.00  0.00    -0.003 A 
ATOM      9  C   UNL     1      50.486  78.054  41.665  0.00  0.00    +0.006 A 
ATOM     10  C   UNL     1      51.742  77.991  42.252  0.00  0.00    +0.080 A 
ATOM     11  C   UNL     1      52.084  78.983  43.121  0.00  0.00    +0.006 A 
ATOM     12  C   UNL     1      51.212  80.012  43.404  0.00  0.00    -0.003 A 
BRANCH  10  13
ATOM     13  C   UNL     1      52.621  76.883  41.917  0.00  0.00    +0.388 C 
ATOM     14  O   UNL     1      52.511  76.342  40.800  0.00  0.00    -0.241 OA
ATOM     15  O   UNL     1      53.569  76.416  42.798  0.00  0.00    -0.241 OA
ENDBRANCH  10  13
ENDBRANCH   5   7
BRANCH   1  16
ATOM     16  O   UNL     1      49.922  84.760  43.257  0.00  0.00    -0.356 OA
BRANCH  16  18
ATOM     17  C   UNL     1      51.499  85.063  45.062  0.00  0.00    +0.035 C 
ATOM     18  C   UNL     1      50.258  85.496  44.351  0.00  0.00    +0.142 C 
ENDBRANCH  16  18
ENDBRANCH   1  16
BRANCH   4  19
ATOM     19  C   UNL     1      47.754  81.079  41.017  0.00  0.00    +0.102 C 
BRANCH  19  20
ATOM     20  C   UNL     1      46.405  80.727  40.503  0.00  0.00    +0.029 A 
ATOM     21  C   UNL     1      45.641  79.746  41.110  0.00  0.00    +0.136 A 
ATOM     22  C   UNL     1      44.375  79.382  40.662  0.00  0.00    +0.034 A 
ATOM     23  C   UNL     1      43.840  80.021  39.556  0.00  0.00    -0.001 A 
ATOM     24  C   UNL     1      44.582  81.000  38.936  0.00  0.00    +0.077 A 
ATOM     25  C   UNL     1      45.830  81.336  39.405  0.00  0.00    +0.019 A 
ATOM     26  C   UNL     1      46.286  82.337  38.551  0.00  0.00    +0.022 A 
ATOM     27  C   UNL     1      45.301  82.577  37.593  0.00  0.00    +0.099 A 
ATOM     28  N   UNL     1      44.294  81.750  37.863  0.00  0.00    -0.244 NA
ATOM     29  C   UNL     1      42.486  79.651  39.054  0.00  0.00    +0.033 C 
BRANCH  21  30
ATOM     30  O   UNL     1      46.108  79.058  42.224  0.00  0.00    -0.472 OA
ATOM     31  C   UNL     1      45.506  77.870  42.693  0.00  0.00    +0.252 C 
ENDBRANCH  21  30
ENDBRANCH  19  20
ENDBRANCH   4  19
TORSDOF 7
