REMARK  Name = Irinotecan
REMARK  5 active torsions:
REMARK  status: ('A' for Active; 'I' for Inactive)
REMARK    1  A    between atoms: C_2  and  C_3
REMARK    2  A    between atoms: C_17  and  C_18
REMARK    3  A    between atoms: C_26  and  O_29
REMARK    4  A    between atoms: O_29  and  C_30
REMARK    5  A    between atoms: C_35  and  N_38
REMARK                            x       y       z     vdW  Elec       q    Type
REMARK                         _______ _______ _______ _____ _____    ______ ____
ROOT
ATOM      1  C   UNL     1      42.697  78.137  39.156  0.00  0.00    -0.021 A 
ATOM      2  C   UNL     1      43.786  78.967  39.354  0.00  0.00    +0.016 A 
ATOM      3  C   UNL     1      44.167  80.190  38.646  0.00  0.00    +0.137 C 
ATOM      4  N   UNL     1      45.399  80.636  39.275  0.00  0.00    -0.290 N 
ATOM      5  C   UNL     1      45.754  79.798  40.266  0.00  0.00    +0.080 A 
ATOM      6  C   UNL     1      46.910  80.036  41.007  0.00  0.00    +0.017 A 
ATOM      7  C   UNL     1      47.727  81.119  40.764  0.00  0.00    +0.021 A 
ATOM      8  C   UNL     1      47.343  81.966  39.743  0.00  0.00    +0.076 A 
ATOM      9  C   UNL     1      46.186  81.698  39.026  0.00  0.00    +0.260 A 
ATOM     10  O   UNL     1      45.829  82.474  38.084  0.00  0.00    -0.267 OA
ATOM     11  C   UNL     1      48.131  83.170  39.374  0.00  0.00    +0.240 C 
ATOM     12  O   UNL     1      49.017  83.562  40.395  0.00  0.00    -0.441 OA
ATOM     13  C   UNL     1      49.199  82.859  41.567  0.00  0.00    +0.349 C 
ATOM     14  O   UNL     1      49.554  83.476  42.606  0.00  0.00    -0.247 OA
ATOM     15  C   UNL     1      48.965  81.396  41.540  0.00  0.00    +0.233 C 
ATOM     16  O   UNL     1      48.778  80.890  42.825  0.00  0.00    -0.210 OA
ATOM     17  C   UNL     1      44.739  78.747  40.317  0.00  0.00    +0.095 A 
ATOM     18  N   UNL     1      44.564  77.659  41.081  0.00  0.00    -0.244 NA
ATOM     19  C   UNL     1      43.523  76.803  40.943  0.00  0.00    +0.081 A 
ATOM     20  C   UNL     1      42.568  77.036  39.967  0.00  0.00    +0.017 A 
ATOM     21  C   UNL     1      41.532  76.132  39.862  0.00  0.00    +0.039 A 
ATOM     22  C   UNL     1      41.385  75.016  40.662  0.00  0.00    +0.150 A 
ATOM     23  C   UNL     1      42.349  74.810  41.624  0.00  0.00    +0.039 A 
ATOM     24  C   UNL     1      43.410  75.695  41.764  0.00  0.00    +0.022 A 
ENDROOT
BRANCH   1  26
ATOM     25  C   UNL     1      42.310  77.942  36.790  0.00  0.00    +0.005 C 
ATOM     26  C   UNL     1      41.697  78.415  38.102  0.00  0.00    +0.026 C 
ENDBRANCH   1  26
BRANCH  15  27
ATOM     27  C   UNL     1      50.101  80.701  40.819  0.00  0.00    +0.046 C 
ATOM     28  C   UNL     1      49.957  79.197  40.856  0.00  0.00    +0.004 C 
ENDBRANCH  15  27
BRANCH  22  29
ATOM     29  O   UNL     1      40.352  74.102  40.566  0.00  0.00    -0.410 OA
BRANCH  29  30
ATOM     30  C   UNL     1      39.926  73.550  39.379  0.00  0.00    +0.409 C 
ATOM     31  O   UNL     1      40.709  72.737  38.817  0.00  0.00    -0.226 OA
ATOM     32  N   UNL     1      38.656  73.872  38.794  0.00  0.00    -0.246 N 
ATOM     33  C   UNL     1      37.657  72.864  38.529  0.00  0.00    +0.098 C 
ATOM     34  C   UNL     1      37.411  72.817  37.045  0.00  0.00    +0.038 C 
ATOM     35  C   UNL     1      37.095  74.190  36.520  0.00  0.00    +0.061 C 
ATOM     36  C   UNL     1      38.066  75.238  36.943  0.00  0.00    +0.038 C 
ATOM     37  C   UNL     1      38.307  75.231  38.437  0.00  0.00    +0.098 C 
BRANCH  35  38
ATOM     38  N   UNL     1      37.085  74.129  35.060  0.00  0.00    -0.274 NA
ATOM     39  C   UNL     1      36.000  73.322  34.607  0.00  0.00    +0.072 C 
ATOM     40  C   UNL     1      36.048  73.078  33.128  0.00  0.00    +0.017 C 
ATOM     41  C   UNL     1      37.306  72.252  32.873  0.00  0.00    +0.003 C 
ATOM     42  C   UNL     1      38.460  73.152  33.241  0.00  0.00    +0.017 C 
ATOM     43  C   UNL     1      38.359  73.665  34.638  0.00  0.00    +0.072 C 
ENDBRANCH  35  38
ENDBRANCH  29  30
ENDBRANCH  22  29
TORSDOF 5
