REMARK  Name = Isepamicin
REMARK  9 active torsions:
REMARK  status: ('A' for Active; 'I' for Inactive)
REMARK    1  A    between atoms: C_5  and  O_11
REMARK    2  A    between atoms: C_7  and  N_8
REMARK    3  A    between atoms: O_11  and  C_12
REMARK    4  A    between atoms: C_13  and  N_32
REMARK    5  A    between atoms: C_16  and  O_19
REMARK    6  A    between atoms: O_19  and  C_20
REMARK    7  A    between atoms: C_24  and  C_26
REMARK    8  A    between atoms: C_33  and  C_35
REMARK    9  A    between atoms: C_35  and  C_36
REMARK                            x       y       z     vdW  Elec       q    Type
REMARK                         _______ _______ _______ _____ _____    ______ ____
ROOT
ATOM      1  C   UNL     1      44.194  79.507  40.880  0.00  0.00    +0.170 C 
ATOM      2  C   UNL     1      44.692  78.890  39.589  0.00  0.00    +0.127 C 
ATOM      3  C   UNL     1      46.024  79.533  39.223  0.00  0.00    +0.046 C 
ATOM      4  C   UNL     1      46.018  80.922  39.828  0.00  0.00    +0.123 C 
ATOM      5  C   UNL     1      46.339  80.715  41.318  0.00  0.00    +0.168 C 
ATOM      6  C   UNL     1      45.377  79.693  41.818  0.00  0.00    +0.209 C 
ATOM      7  O   UNL     1      45.933  78.438  42.013  0.00  0.00    -0.218 OA
ATOM      8  N   UNL     1      47.158  81.626  39.233  0.00  0.00    -0.130 NA
ENDROOT
BRANCH   2   9
ATOM      9  N   UNL     1      43.807  79.105  38.481  0.00  0.00    -0.202 NA
ATOM     10  C   UNL     1      42.715  78.221  38.290  0.00  0.00    +0.273 C 
ATOM     11  O   UNL     1      42.880  76.990  38.521  0.00  0.00    -0.271 OA
BRANCH  10  12
ATOM     12  C   UNL     1      41.378  78.670  37.828  0.00  0.00    +0.248 C 
ATOM     13  O   UNL     1      40.485  78.773  38.888  0.00  0.00    -0.212 OA
BRANCH  12  14
ATOM     14  C   UNL     1      40.849  77.596  36.868  0.00  0.00    +0.152 C 
ATOM     15  N   UNL     1      39.623  78.010  36.249  0.00  0.00    -0.128 NA
ENDBRANCH  12  14
ENDBRANCH  10  12
ENDBRANCH   2   9
BRANCH   1  16
ATOM     16  O   UNL     1      43.348  78.538  41.470  0.00  0.00    -0.327 OA
BRANCH  16  21
ATOM     17  C   UNL     1      45.424  74.421  43.196  0.00  0.00    +0.037 C 
ATOM     18  C   UNL     1      44.873  74.701  41.813  0.00  0.00    +0.171 C 
ATOM     19  C   UNL     1      45.629  75.882  41.235  0.00  0.00    +0.176 C 
ATOM     20  O   UNL     1      44.760  76.885  40.843  0.00  0.00    -0.326 OA
ATOM     21  C   UNL     1      44.086  77.450  41.924  0.00  0.00    +0.268 C 
ATOM     22  C   UNL     1      43.248  76.395  42.566  0.00  0.00    +0.226 C 
ATOM     23  C   UNL     1      43.413  75.064  41.856  0.00  0.00    +0.138 C 
ATOM     24  O   UNL     1      43.604  76.216  43.922  0.00  0.00    -0.216 OA
ATOM     25  O   UNL     1      45.060  73.588  40.976  0.00  0.00    -0.222 OA
BRANCH  23  26
ATOM     26  N   UNL     1      42.595  74.037  42.440  0.00  0.00    -0.213 NA
ATOM     27  C   UNL     1      42.223  74.424  43.785  0.00  0.00    +0.108 C 
ENDBRANCH  23  26
ENDBRANCH  16  21
ENDBRANCH   1  16
BRANCH   5  28
ATOM     28  O   UNL     1      47.650  80.416  41.373  0.00  0.00    -0.327 OA
BRANCH  28  29
ATOM     29  C   UNL     1      48.519  81.283  41.936  0.00  0.00    +0.269 C 
ATOM     30  C   UNL     1      49.889  81.026  41.310  0.00  0.00    +0.241 C 
ATOM     31  C   UNL     1      50.940  81.928  41.858  0.00  0.00    +0.220 C 
ATOM     32  C   UNL     1      50.482  83.344  41.764  0.00  0.00    +0.213 C 
ATOM     33  C   UNL     1      49.114  83.491  42.315  0.00  0.00    +0.170 C 
ATOM     34  O   UNL     1      48.172  82.599  41.929  0.00  0.00    -0.327 OA
ATOM     35  O   UNL     1      51.397  84.128  42.474  0.00  0.00    -0.218 OA
ATOM     36  O   UNL     1      51.230  81.540  43.164  0.00  0.00    -0.217 OA
ATOM     37  O   UNL     1      49.824  81.256  39.915  0.00  0.00    -0.215 OA
BRANCH  33  38
ATOM     38  C   UNL     1      49.206  83.475  43.848  0.00  0.00    +0.142 C 
ATOM     39  N   UNL     1      48.564  84.679  44.387  0.00  0.00    -0.129 NA
ENDBRANCH  33  38
ENDBRANCH  28  29
ENDBRANCH   5  28
TORSDOF 9
