REMARK  Name = Isoetharine
REMARK  5 active torsions:
REMARK  status: ('A' for Active; 'I' for Inactive)
REMARK    1  A    between atoms: C_2  and  C_3
REMARK    2  A    between atoms: C_3  and  C_4
REMARK    3  A    between atoms: C_3  and  N_14
REMARK    4  A    between atoms: C_4  and  C_5
REMARK    5  A    between atoms: N_14  and  C_15
REMARK                            x       y       z     vdW  Elec       q    Type
REMARK                         _______ _______ _______ _____ _____    ______ ____
ROOT
ATOM      1  C   UNL     1      48.056  81.642  42.393  0.00  0.00    +0.190 C 
ATOM      2  O   UNL     1      48.916  80.562  42.568  0.00  0.00    -0.217 OA
ENDROOT
BRANCH   1   3
ATOM      3  C   UNL     1      47.135  81.250  41.290  0.00  0.00    +0.012 A 
ATOM      4  C   UNL     1      46.895  82.003  40.173  0.00  0.00    +0.044 A 
ATOM      5  C   UNL     1      46.014  81.533  39.216  0.00  0.00    +0.234 A 
ATOM      6  C   UNL     1      45.350  80.330  39.320  0.00  0.00    +0.234 A 
ATOM      7  C   UNL     1      45.608  79.592  40.451  0.00  0.00    +0.045 A 
ATOM      8  C   UNL     1      46.474  80.022  41.422  0.00  0.00    +0.002 A 
ATOM      9  O   UNL     1      44.462  79.884  38.329  0.00  0.00    -0.283 OA
ATOM     10  O   UNL     1      45.786  82.311  38.097  0.00  0.00    -0.283 OA
ENDBRANCH   1   3
BRANCH   1  11
ATOM     11  C   UNL     1      48.821  82.923  42.118  0.00  0.00    +0.107 C 
BRANCH  11  13
ATOM     12  C   UNL     1      47.410  84.490  43.551  0.00  0.00    +0.002 C 
ATOM     13  C   UNL     1      47.947  84.139  42.235  0.00  0.00    +0.020 C 
ENDBRANCH  11  13
BRANCH  11  14
ATOM     14  N   UNL     1      50.112  82.953  42.630  0.00  0.00    -0.218 NA
BRANCH  14  15
ATOM     15  C   UNL     1      51.193  83.629  42.102  0.00  0.00    +0.073 C 
ATOM     16  C   UNL     1      52.463  82.825  42.000  0.00  0.00    +0.019 C 
ATOM     17  C   UNL     1      51.527  84.812  43.041  0.00  0.00    +0.019 C 
ENDBRANCH  14  15
ENDBRANCH  11  14
ENDBRANCH   1  11
TORSDOF 5
