REMARK  Name = Isoproterenol
REMARK  4 active torsions:
REMARK  status: ('A' for Active; 'I' for Inactive)
REMARK    1  A    between atoms: C_2  and  N_4
REMARK    2  A    between atoms: N_4  and  C_5
REMARK    3  A    between atoms: C_5  and  C_6
REMARK    4  A    between atoms: C_6  and  C_7
REMARK                            x       y       z     vdW  Elec       q    Type
REMARK                         _______ _______ _______ _____ _____    ______ ____
ROOT
ATOM      1  C   UNL     1      46.831  81.011  41.122  0.00  0.00    +0.013 A 
ATOM      2  C   UNL     1      46.522  81.801  40.046  0.00  0.00    +0.044 A 
ATOM      3  C   UNL     1      45.634  81.391  39.046  0.00  0.00    +0.234 A 
ATOM      4  C   UNL     1      45.059  80.147  39.162  0.00  0.00    +0.234 A 
ATOM      5  C   UNL     1      45.378  79.362  40.250  0.00  0.00    +0.045 A 
ATOM      6  C   UNL     1      46.239  79.751  41.226  0.00  0.00    +0.002 A 
ATOM      7  O   UNL     1      44.175  79.726  38.177  0.00  0.00    -0.283 OA
ATOM      8  O   UNL     1      45.352  82.226  37.974  0.00  0.00    -0.283 OA
ENDROOT
BRANCH   1   9
ATOM      9  C   UNL     1      47.781  81.460  42.193  0.00  0.00    +0.192 C 
ATOM     10  O   UNL     1      48.446  80.301  42.594  0.00  0.00    -0.217 OA
BRANCH   9  11
ATOM     11  C   UNL     1      48.690  82.493  41.595  0.00  0.00    +0.126 C 
BRANCH  11  12
ATOM     12  N   UNL     1      49.672  83.033  42.480  0.00  0.00    -0.216 NA
BRANCH  12  14
ATOM     13  C   UNL     1      50.586  84.710  43.889  0.00  0.00    +0.019 C 
ATOM     14  C   UNL     1      49.489  84.407  42.849  0.00  0.00    +0.073 C 
ATOM     15  C   UNL     1      48.127  84.599  43.486  0.00  0.00    +0.019 C 
ENDBRANCH  12  14
ENDBRANCH  11  12
ENDBRANCH   9  11
ENDBRANCH   1   9
TORSDOF 4
