REMARK  Name = Isopropamide_iodide
REMARK  8 active torsions:
REMARK  status: ('A' for Active; 'I' for Inactive)
REMARK    1  A    between atoms: C_2  and  N_4
REMARK    2  A    between atoms: N_4  and  C_6
REMARK    3  A    between atoms: N_4  and  C_24
REMARK    4  A    between atoms: C_6  and  C_7
REMARK    5  A    between atoms: C_7  and  C_8
REMARK    6  A    between atoms: C_8  and  C_9
REMARK    7  A    between atoms: C_8  and  C_15
REMARK    8  A    between atoms: C_8  and  C_21
REMARK                            x       y       z     vdW  Elec       q    Type
REMARK                         _______ _______ _______ _____ _____    ______ ____
ROOT
ATOM      1  C   UNL     1      49.634  82.347  42.117  0.00  0.00    +0.108 C 
ENDROOT
BRANCH   1   2
ATOM      2  C   UNL     1      48.959  83.595  42.499  0.00  0.00    -0.011 A 
ATOM      3  C   UNL     1      49.198  84.106  43.766  0.00  0.00    -0.004 A 
ATOM      4  C   UNL     1      48.613  85.282  44.197  0.00  0.00    -0.000 A 
ATOM      5  C   UNL     1      47.775  85.970  43.360  0.00  0.00    -0.000 A 
ATOM      6  C   UNL     1      47.526  85.484  42.108  0.00  0.00    -0.000 A 
ATOM      7  C   UNL     1      48.120  84.300  41.685  0.00  0.00    -0.004 A 
ENDBRANCH   1   2
BRANCH   1   8
ATOM      8  C   UNL     1      49.824  81.447  43.285  0.00  0.00    -0.011 A 
ATOM      9  C   UNL     1      48.809  81.336  44.194  0.00  0.00    -0.004 A 
ATOM     10  C   UNL     1      48.919  80.523  45.277  0.00  0.00    -0.000 A 
ATOM     11  C   UNL     1      50.069  79.795  45.471  0.00  0.00    -0.000 A 
ATOM     12  C   UNL     1      51.118  79.877  44.578  0.00  0.00    -0.000 A 
ATOM     13  C   UNL     1      50.969  80.723  43.476  0.00  0.00    -0.004 A 
ENDBRANCH   1   8
BRANCH   1  14
ATOM     14  C   UNL     1      51.034  82.761  41.710  0.00  0.00    +0.267 C 
ATOM     15  O   UNL     1      51.474  82.533  40.575  0.00  0.00    -0.271 OA
ATOM     16  N   UNL     1      51.802  83.418  42.700  0.00  0.00    -0.087 NA
ENDBRANCH   1  14
BRANCH   1  17
ATOM     17  C   UNL     1      48.986  81.575  40.991  0.00  0.00    -0.005 C 
BRANCH  17  18
ATOM     18  C   UNL     1      47.609  81.145  41.295  0.00  0.00    -0.072 C 
BRANCH  18  19
ATOM     19  N   UNL     1      46.903  80.377  40.322  0.00  0.00    +0.391 N 
ATOM     20  C   UNL     1      46.867  78.967  40.709  0.00  0.00    -0.096 C 
BRANCH  19  22
ATOM     21  C   UNL     1      47.087  81.903  38.414  0.00  0.00    -0.022 C 
ATOM     22  C   UNL     1      47.248  80.529  38.950  0.00  0.00    -0.054 C 
ATOM     23  C   UNL     1      48.568  79.999  38.507  0.00  0.00    -0.022 C 
ENDBRANCH  19  22
BRANCH  19  24
ATOM     24  C   UNL     1      45.492  80.807  40.437  0.00  0.00    -0.054 C 
ATOM     25  C   UNL     1      44.612  80.180  39.410  0.00  0.00    -0.022 C 
ATOM     26  C   UNL     1      44.932  80.414  41.804  0.00  0.00    -0.022 C 
ENDBRANCH  19  24
ENDBRANCH  18  19
ENDBRANCH  17  18
ENDBRANCH   1  17
TORSDOF 8
REMARK  Name = Isopropamide_iodide
REMARK  8 active torsions:
REMARK  status: ('A' for Active; 'I' for Inactive)
REMARK    1  A    between atoms: C_2  and  N_4
REMARK    2  A    between atoms: N_4  and  C_6
REMARK    3  A    between atoms: N_4  and  C_24
REMARK    4  A    between atoms: C_6  and  C_7
REMARK    5  A    between atoms: C_7  and  C_8
REMARK    6  A    between atoms: C_8  and  C_9
REMARK    7  A    between atoms: C_8  and  C_15
REMARK    8  A    between atoms: C_8  and  C_21
REMARK                            x       y       z     vdW  Elec       q    Type
REMARK                         _______ _______ _______ _____ _____    ______ ____
ROOT
ATOM      1  I   UNL     1      48.102  81.606  41.646  0.00  0.00    +0.000 I 
ENDROOT
TORSDOF 0
