REMARK  Name = Isosorbide_Dinitrate
REMARK  4 active torsions:
REMARK  status: ('A' for Active; 'I' for Inactive)
REMARK    1  A    between atoms: C_2  and  O_13
REMARK    2  A    between atoms: C_6  and  O_9
REMARK    3  A    between atoms: O_9  and  N_10
REMARK    4  A    between atoms: O_13  and  N_14
REMARK                            x       y       z     vdW  Elec       q    Type
REMARK                         _______ _______ _______ _____ _____    ______ ____
ROOT
ATOM      1  C   UNL     1      42.902  78.144  39.100  0.00  0.00    +0.191 C 
ATOM      2  C   UNL     1      43.299  77.586  40.443  0.00  0.00    +0.259 C 
ATOM      3  C   UNL     1      44.723  78.064  40.578  0.00  0.00    +0.191 C 
ATOM      4  C   UNL     1      44.857  79.124  39.481  0.00  0.00    +0.191 C 
ATOM      5  O   UNL     1      43.584  79.379  39.023  0.00  0.00    -0.346 OA
ATOM      6  C   UNL     1      45.482  80.260  40.226  0.00  0.00    +0.259 C 
ATOM      7  C   UNL     1      46.066  79.509  41.430  0.00  0.00    +0.191 C 
ATOM      8  O   UNL     1      44.936  78.744  41.778  0.00  0.00    -0.346 OA
ENDROOT
BRANCH   6   9
ATOM      9  O   UNL     1      46.532  80.879  39.530  0.00  0.00    -0.334 OA
BRANCH   9  10
ATOM     10  N   UNL     1      46.291  82.062  38.903  0.00  0.00    +0.218 N 
ATOM     11  O   UNL     1      45.354  82.117  38.077  0.00  0.00    -0.090 OA
ATOM     12  O   UNL     1      47.018  83.212  39.120  0.00  0.00    -0.090 OA
ENDBRANCH   9  10
ENDBRANCH   6   9
BRANCH   2  13
ATOM     13  O   UNL     1      43.296  76.188  40.490  0.00  0.00    -0.334 OA
BRANCH  13  14
ATOM     14  N   UNL     1      42.404  75.513  39.704  0.00  0.00    +0.218 N 
ATOM     15  O   UNL     1      42.591  74.298  39.513  0.00  0.00    -0.090 OA
ATOM     16  O   UNL     1      41.333  76.160  39.143  0.00  0.00    -0.090 OA
ENDBRANCH  13  14
ENDBRANCH   2  13
TORSDOF 4
