REMARK  Name = Isotretinoin
REMARK  5 active torsions:
REMARK  status: ('A' for Active; 'I' for Inactive)
REMARK    1  A    between atoms: C_3  and  C_10
REMARK    2  A    between atoms: C_11  and  C_12
REMARK    3  A    between atoms: C_13  and  C_14
REMARK    4  A    between atoms: C_15  and  C_16
REMARK    5  A    between atoms: C_17  and  C_18
REMARK                            x       y       z     vdW  Elec       q    Type
REMARK                         _______ _______ _______ _____ _____    ______ ____
ROOT
ATOM      1  C   UNL     1      48.137  82.733  40.839  0.00  0.00    -0.005 C 
ATOM      2  C   UNL     1      47.213  81.817  40.924  0.00  0.00    -0.005 C 
ENDROOT
BRANCH   1   5
ATOM      3  C   UNL     1      50.554  81.559  40.978  0.00  0.00    +0.026 C 
ATOM      4  C   UNL     1      50.214  82.588  42.011  0.00  0.00    -0.048 C 
ATOM      5  C   UNL     1      48.983  83.176  41.904  0.00  0.00    -0.031 C 
ATOM      6  C   UNL     1      48.726  84.176  42.950  0.00  0.00    +0.018 C 
ATOM      7  C   UNL     1      50.012  85.019  43.024  0.00  0.00    +0.004 C 
ATOM      8  C   UNL     1      51.142  84.256  43.645  0.00  0.00    +0.005 C 
ATOM      9  C   UNL     1      51.188  82.887  43.072  0.00  0.00    +0.022 C 
ATOM     10  C   UNL     1      47.632  85.151  42.789  0.00  0.00    +0.004 C 
ATOM     11  C   UNL     1      48.502  83.454  44.266  0.00  0.00    +0.004 C 
ENDBRANCH   1   5
BRANCH   2  12
ATOM     12  C   UNL     1      46.324  81.550  39.738  0.00  0.00    -0.022 C 
ATOM     13  C   UNL     1      45.540  80.529  39.804  0.00  0.00    -0.004 C 
ATOM     14  C   UNL     1      46.441  82.483  38.620  0.00  0.00    +0.031 C 
BRANCH  13  15
ATOM     15  C   UNL     1      44.542  80.118  38.774  0.00  0.00    -0.001 C 
ATOM     16  C   UNL     1      43.802  79.129  38.928  0.00  0.00    -0.004 C 
BRANCH  16  17
ATOM     17  C   UNL     1      42.975  78.001  39.113  0.00  0.00    -0.015 C 
ATOM     18  C   UNL     1      41.961  77.784  38.282  0.00  0.00    +0.082 C 
ATOM     19  C   UNL     1      43.119  76.972  40.208  0.00  0.00    +0.031 C 
BRANCH  18  20
ATOM     20  C   UNL     1      41.056  76.686  38.391  0.00  0.00    +0.388 C 
ATOM     21  O   UNL     1      40.051  76.583  37.590  0.00  0.00    -0.241 OA
ATOM     22  O   UNL     1      41.213  75.697  39.345  0.00  0.00    -0.241 OA
ENDBRANCH  18  20
ENDBRANCH  16  17
ENDBRANCH  13  15
ENDBRANCH   2  12
TORSDOF 5
