REMARK  Name = Isovanillin
REMARK  2 active torsions:
REMARK  status: ('A' for Active; 'I' for Inactive)
REMARK    1  A    between atoms: O_2  and  C_3
REMARK    2  A    between atoms: C_6  and  C_9
REMARK                            x       y       z     vdW  Elec       q    Type
REMARK                         _______ _______ _______ _____ _____    ______ ____
ROOT
ATOM      1  C   UNL     1      45.304  80.743  39.554  0.00  0.00    +0.177 A 
ATOM      2  C   UNL     1      45.953  81.920  39.177  0.00  0.00    +0.229 A 
ATOM      3  C   UNL     1      47.056  82.384  39.852  0.00  0.00    +0.049 A 
ATOM      4  C   UNL     1      47.553  81.693  40.930  0.00  0.00    +0.046 A 
ATOM      5  C   UNL     1      46.924  80.523  41.322  0.00  0.00    +0.007 A 
ATOM      6  C   UNL     1      45.805  80.064  40.626  0.00  0.00    +0.040 A 
ATOM      7  O   UNL     1      45.428  82.590  38.091  0.00  0.00    -0.283 OA
ENDROOT
BRANCH   1   9
ATOM      8  C   UNL     1      43.685  79.005  39.243  0.00  0.00    +0.253 C 
ATOM      9  O   UNL     1      44.196  80.270  38.882  0.00  0.00    -0.468 OA
ENDBRANCH   1   9
BRANCH   4  10
ATOM     10  C   UNL     1      48.726  82.158  41.673  0.00  0.00    +0.234 C 
ATOM     11  O   UNL     1      49.338  83.211  41.361  0.00  0.00    -0.283 OA
ENDBRANCH   4  10
TORSDOF 2
