REMARK  Name = Isoxyl
REMARK  12 active torsions:
REMARK  status: ('A' for Active; 'I' for Inactive)
REMARK    1  A    between atoms: C_2  and  C_4
REMARK    2  A    between atoms: C_4  and  C_5
REMARK    3  A    between atoms: C_5  and  O_6
REMARK    4  A    between atoms: O_6  and  C_7
REMARK    5  A    between atoms: C_10  and  N_13
REMARK    6  A    between atoms: N_13  and  C_14
REMARK    7  A    between atoms: C_14  and  N_16
REMARK    8  A    between atoms: N_16  and  C_17
REMARK    9  A    between atoms: C_20  and  O_23
REMARK   10  A    between atoms: O_23  and  C_24
REMARK   11  A    between atoms: C_24  and  C_25
REMARK   12  A    between atoms: C_25  and  C_26
REMARK                            x       y       z     vdW  Elec       q    Type
REMARK                         _______ _______ _______ _____ _____    ______ ____
ROOT
ATOM      1  C   UNL     1      45.224  78.105  39.607  0.00  0.00    +0.179 C 
ATOM      2  S   UNL     1      46.377  77.404  40.521  0.00  0.00    -0.015 S 
ENDROOT
BRANCH   1   3
ATOM      3  N   UNL     1      44.876  79.450  39.845  0.00  0.00    -0.190 NA
BRANCH   3   7
ATOM      4  C   UNL     1      47.672  82.256  41.446  0.00  0.00    +0.139 A 
ATOM      5  C   UNL     1      47.224  81.130  42.162  0.00  0.00    +0.038 A 
ATOM      6  C   UNL     1      46.322  80.238  41.635  0.00  0.00    +0.020 A 
ATOM      7  C   UNL     1      45.802  80.397  40.369  0.00  0.00    +0.073 A 
ATOM      8  C   UNL     1      46.228  81.493  39.655  0.00  0.00    +0.020 A 
ATOM      9  C   UNL     1      47.148  82.409  40.184  0.00  0.00    +0.038 A 
BRANCH   4  10
ATOM     10  O   UNL     1      48.573  83.097  42.053  0.00  0.00    -0.475 OA
BRANCH  10  11
ATOM     11  C   UNL     1      48.587  83.505  43.361  0.00  0.00    +0.205 C 
BRANCH  11  12
ATOM     12  C   UNL     1      49.666  84.536  43.578  0.00  0.00    +0.047 C 
BRANCH  12  14
ATOM     13  C   UNL     1      51.404  83.354  42.334  0.00  0.00    +0.000 C 
ATOM     14  C   UNL     1      50.997  83.797  43.712  0.00  0.00    +0.004 C 
ATOM     15  C   UNL     1      51.969  84.856  44.255  0.00  0.00    +0.000 C 
ENDBRANCH  12  14
ENDBRANCH  11  12
ENDBRANCH  10  11
ENDBRANCH   4  10
ENDBRANCH   3   7
ENDBRANCH   1   3
BRANCH   1  16
ATOM     16  N   UNL     1      44.577  77.366  38.578  0.00  0.00    -0.190 NA
BRANCH  16  17
ATOM     17  C   UNL     1      43.154  77.296  38.559  0.00  0.00    +0.073 A 
ATOM     18  C   UNL     1      42.468  76.709  39.597  0.00  0.00    +0.020 A 
ATOM     19  C   UNL     1      41.074  76.632  39.604  0.00  0.00    +0.038 A 
ATOM     20  C   UNL     1      40.312  77.139  38.578  0.00  0.00    +0.139 A 
ATOM     21  C   UNL     1      41.035  77.737  37.524  0.00  0.00    +0.038 A 
ATOM     22  C   UNL     1      42.403  77.806  37.526  0.00  0.00    +0.020 A 
BRANCH  20  23
ATOM     23  O   UNL     1      38.946  77.116  38.498  0.00  0.00    -0.475 OA
BRANCH  23  24
ATOM     24  C   UNL     1      38.087  76.633  37.536  0.00  0.00    +0.205 C 
BRANCH  24  25
ATOM     25  C   UNL     1      36.702  76.459  38.054  0.00  0.00    +0.047 C 
BRANCH  25  26
ATOM     26  C   UNL     1      35.966  77.784  37.857  0.00  0.00    +0.004 C 
ATOM     27  C   UNL     1      34.759  77.511  37.007  0.00  0.00    +0.000 C 
ATOM     28  C   UNL     1      35.648  78.320  39.215  0.00  0.00    +0.000 C 
ENDBRANCH  25  26
ENDBRANCH  24  25
ENDBRANCH  23  24
ENDBRANCH  20  23
ENDBRANCH  16  17
ENDBRANCH   1  16
TORSDOF 12
