REMARK  Name = Isradipine
REMARK  6 active torsions:
REMARK  status: ('A' for Active; 'I' for Inactive)
REMARK    1  A    between atoms: C_3  and  C_24
REMARK    2  A    between atoms: C_4  and  C_15
REMARK    3  A    between atoms: C_5  and  C_9
REMARK    4  A    between atoms: C_9  and  O_11
REMARK    5  A    between atoms: O_11  and  C_12
REMARK    6  A    between atoms: C_24  and  O_26
REMARK                            x       y       z     vdW  Elec       q    Type
REMARK                         _______ _______ _______ _____ _____    ______ ____
ROOT
ATOM      1  C   UNL     1      43.158  80.425  37.424  0.00  0.00    +0.049 C 
ATOM      2  C   UNL     1      44.333  80.710  38.292  0.00  0.00    +0.051 C 
ATOM      3  C   UNL     1      44.922  79.723  38.923  0.00  0.00    +0.073 C 
ATOM      4  C   UNL     1      46.106  79.914  39.814  0.00  0.00    +0.083 C 
ATOM      5  C   UNL     1      46.566  81.297  39.934  0.00  0.00    +0.073 C 
ATOM      6  C   UNL     1      45.941  82.256  39.280  0.00  0.00    +0.051 C 
ATOM      7  N   UNL     1      44.822  82.043  38.444  0.00  0.00    -0.221 NA
ATOM      8  C   UNL     1      46.427  83.681  39.414  0.00  0.00    +0.049 C 
ENDROOT
BRANCH   4   9
ATOM      9  C   UNL     1      45.753  79.308  41.148  0.00  0.00    +0.009 A 
ATOM     10  C   UNL     1      44.765  79.871  41.913  0.00  0.00    -0.002 A 
ATOM     11  C   UNL     1      44.480  79.305  43.142  0.00  0.00    +0.001 A 
ATOM     12  C   UNL     1      45.164  78.207  43.592  0.00  0.00    +0.024 A 
ATOM     13  C   UNL     1      46.161  77.637  42.822  0.00  0.00    +0.143 A 
ATOM     14  N   UNL     1      46.978  76.585  43.002  0.00  0.00    -0.048 NA
ATOM     15  O   UNL     1      47.719  76.516  41.941  0.00  0.00    -0.242 OA
ATOM     16  N   UNL     1      47.431  77.453  41.095  0.00  0.00    -0.049 NA
ATOM     17  C   UNL     1      46.446  78.202  41.595  0.00  0.00    +0.140 A 
ENDBRANCH   4   9
BRANCH   5  18
ATOM     18  C   UNL     1      47.732  81.620  40.787  0.00  0.00    +0.339 C 
ATOM     19  O   UNL     1      48.780  80.961  40.665  0.00  0.00    -0.245 OA
BRANCH  18  20
ATOM     20  O   UNL     1      47.753  82.614  41.728  0.00  0.00    -0.449 OA
BRANCH  20  21
ATOM     21  C   UNL     1      48.875  83.045  42.430  0.00  0.00    +0.169 C 
ATOM     22  C   UNL     1      48.584  84.165  43.400  0.00  0.00    +0.047 C 
ATOM     23  C   UNL     1      50.007  83.465  41.552  0.00  0.00    +0.047 C 
ENDBRANCH  20  21
ENDBRANCH  18  20
ENDBRANCH   5  18
BRANCH   3  24
ATOM     24  C   UNL     1      44.441  78.348  38.784  0.00  0.00    +0.339 C 
ATOM     25  O   UNL     1      45.233  77.461  38.404  0.00  0.00    -0.245 OA
BRANCH  24  26
ATOM     26  O   UNL     1      43.157  77.988  39.053  0.00  0.00    -0.442 OA
ATOM     27  C   UNL     1      42.497  76.858  38.524  0.00  0.00    +0.256 C 
ENDBRANCH  24  26
ENDBRANCH   3  24
TORSDOF 6
