REMARK  Name = Istradefylline
REMARK  6 active torsions:
REMARK  status: ('A' for Active; 'I' for Inactive)
REMARK    1  A    between atoms: C_2  and  N_3
REMARK    2  A    between atoms: N_8  and  C_11
REMARK    3  A    between atoms: C_14  and  C_16
REMARK    4  A    between atoms: C_17  and  C_18
REMARK    5  A    between atoms: C_20  and  O_26
REMARK    6  A    between atoms: C_21  and  O_24
REMARK                            x       y       z     vdW  Elec       q    Type
REMARK                         _______ _______ _______ _____ _____    ______ ____
ROOT
ATOM      1  N   UNL     1      44.087  78.165  40.533  0.00  0.00    -0.265 N 
ATOM      2  C   UNL     1      45.035  79.111  40.417  0.00  0.00    +0.169 A 
ATOM      3  C   UNL     1      44.896  80.170  39.545  0.00  0.00    +0.153 A 
ATOM      4  C   UNL     1      43.777  80.302  38.756  0.00  0.00    +0.283 A 
ATOM      5  O   UNL     1      43.563  81.223  37.942  0.00  0.00    -0.265 OA
ATOM      6  N   UNL     1      42.836  79.322  38.901  0.00  0.00    -0.247 N 
ATOM      7  C   UNL     1      42.999  78.302  39.758  0.00  0.00    +0.335 A 
ATOM      8  O   UNL     1      42.083  77.423  39.843  0.00  0.00    -0.246 OA
ATOM      9  N   UNL     1      46.019  80.933  39.677  0.00  0.00    -0.304 N 
ATOM     10  C   UNL     1      46.846  80.400  40.588  0.00  0.00    +0.146 A 
ATOM     11  N   UNL     1      46.197  79.261  41.028  0.00  0.00    -0.209 NA
ATOM     12  C   UNL     1      46.230  82.124  38.890  0.00  0.00    +0.132 C 
ENDROOT
BRANCH   1  14
ATOM     13  C   UNL     1      44.101  77.483  42.889  0.00  0.00    +0.027 C 
ATOM     14  C   UNL     1      44.222  77.039  41.450  0.00  0.00    +0.112 C 
ENDBRANCH   1  14
BRANCH   6  15
ATOM     15  C   UNL     1      41.644  79.445  38.073  0.00  0.00    +0.114 C 
ATOM     16  C   UNL     1      41.779  78.522  36.903  0.00  0.00    +0.027 C 
ENDBRANCH   6  15
BRANCH  10  17
ATOM     17  C   UNL     1      48.115  80.829  41.101  0.00  0.00    +0.037 C 
ATOM     18  C   UNL     1      48.393  81.150  42.308  0.00  0.00    +0.003 C 
BRANCH  18  19
ATOM     19  C   UNL     1      49.495  82.065  42.681  0.00  0.00    +0.003 A 
ATOM     20  C   UNL     1      49.309  83.134  43.486  0.00  0.00    +0.040 A 
ATOM     21  C   UNL     1      50.343  84.012  43.849  0.00  0.00    +0.172 A 
ATOM     22  C   UNL     1      51.602  83.756  43.351  0.00  0.00    +0.172 A 
ATOM     23  C   UNL     1      51.846  82.676  42.523  0.00  0.00    +0.040 A 
ATOM     24  C   UNL     1      50.790  81.855  42.206  0.00  0.00    +0.003 A 
BRANCH  22  25
ATOM     25  O   UNL     1      52.610  84.643  43.726  0.00  0.00    -0.468 OA
ATOM     26  C   UNL     1      53.970  84.415  43.467  0.00  0.00    +0.253 C 
ENDBRANCH  22  25
BRANCH  21  27
ATOM     27  O   UNL     1      50.097  85.095  44.680  0.00  0.00    -0.468 OA
ATOM     28  C   UNL     1      48.983  85.907  44.414  0.00  0.00    +0.253 C 
ENDBRANCH  21  27
ENDBRANCH  18  19
ENDBRANCH  10  17
TORSDOF 6
