REMARK  Name = Itraconazole
REMARK  11 active torsions:
REMARK  status: ('A' for Active; 'I' for Inactive)
REMARK    1  A    between atoms: C_2  and  C_3
REMARK    2  A    between atoms: C_3  and  N_5
REMARK    3  A    between atoms: N_8  and  C_11
REMARK    4  A    between atoms: C_14  and  N_17
REMARK    5  A    between atoms: N_20  and  C_23
REMARK    6  A    between atoms: C_26  and  O_29
REMARK    7  A    between atoms: O_29  and  C_30
REMARK    8  A    between atoms: C_30  and  C_31
REMARK    9  A    between atoms: C_34  and  C_36
REMARK   10  A    between atoms: C_34  and  C_42
REMARK   11  A    between atoms: C_36  and  N_37
REMARK                            x       y       z     vdW  Elec       q    Type
REMARK                         _______ _______ _______ _____ _____    ______ ____
ROOT
ATOM      1  C   UNL     1      41.610  77.391  38.679  0.00  0.00    +0.048 A 
ATOM      2  C   UNL     1      42.319  78.347  37.997  0.00  0.00    +0.018 A 
ATOM      3  C   UNL     1      43.515  78.864  38.456  0.00  0.00    +0.038 A 
ATOM      4  C   UNL     1      44.070  78.449  39.629  0.00  0.00    +0.139 A 
ATOM      5  C   UNL     1      43.348  77.461  40.347  0.00  0.00    +0.038 A 
ATOM      6  C   UNL     1      42.163  76.967  39.868  0.00  0.00    +0.018 A 
ENDROOT
BRANCH   1  10
ATOM      7  N   UNL     1      38.469  75.228  37.078  0.00  0.00    -0.304 N 
ATOM      8  C   UNL     1      38.353  75.634  38.442  0.00  0.00    +0.112 C 
ATOM      9  C   UNL     1      39.769  75.821  38.965  0.00  0.00    +0.112 C 
ATOM     10  N   UNL     1      40.392  76.869  38.177  0.00  0.00    -0.304 N 
ATOM     11  C   UNL     1      39.760  77.295  36.966  0.00  0.00    +0.112 C 
ATOM     12  C   UNL     1      39.190  76.115  36.181  0.00  0.00    +0.112 C 
BRANCH   7  16
ATOM     13  C   UNL     1      36.836  71.668  35.508  0.00  0.00    +0.070 A 
ATOM     14  C   UNL     1      37.076  71.786  36.856  0.00  0.00    +0.019 A 
ATOM     15  C   UNL     1      37.616  72.964  37.389  0.00  0.00    +0.016 A 
ATOM     16  C   UNL     1      37.922  74.036  36.591  0.00  0.00    +0.048 A 
ATOM     17  C   UNL     1      37.678  73.909  35.239  0.00  0.00    +0.016 A 
ATOM     18  C   UNL     1      37.141  72.737  34.700  0.00  0.00    +0.019 A 
BRANCH  13  22
ATOM     19  N   UNL     1      35.281  69.020  33.633  0.00  0.00    -0.202 N 
ATOM     20  C   UNL     1      35.703  70.287  33.788  0.00  0.00    +0.352 A 
ATOM     21  O   UNL     1      35.607  71.233  32.959  0.00  0.00    -0.244 OA
ATOM     22  N   UNL     1      36.284  70.455  35.012  0.00  0.00    -0.240 N 
ATOM     23  C   UNL     1      36.203  69.252  35.602  0.00  0.00    +0.207 A 
ATOM     24  N   UNL     1      35.599  68.400  34.762  0.00  0.00    -0.144 NA
BRANCH  19  25
ATOM     25  C   UNL     1      34.614  68.456  32.465  0.00  0.00    +0.110 C 
ATOM     26  C   UNL     1      35.177  67.080  32.186  0.00  0.00    +0.027 C 
BRANCH  25  28
ATOM     27  C   UNL     1      32.305  68.184  31.628  0.00  0.00    +0.002 C 
ATOM     28  C   UNL     1      33.151  68.252  32.872  0.00  0.00    +0.025 C 
ENDBRANCH  25  28
ENDBRANCH  19  25
ENDBRANCH  13  22
ENDBRANCH   7  16
ENDBRANCH   1  10
BRANCH   4  29
ATOM     29  O   UNL     1      45.243  78.905  40.139  0.00  0.00    -0.473 OA
BRANCH  29  30
ATOM     30  C   UNL     1      46.345  78.147  40.457  0.00  0.00    +0.237 C 
BRANCH  30  31
ATOM     31  C   UNL     1      47.604  79.014  40.375  0.00  0.00    +0.191 C 
ATOM     32  C   UNL     1      48.348  78.728  41.685  0.00  0.00    +0.178 C 
ATOM     33  O   UNL     1      48.674  79.954  42.159  0.00  0.00    -0.327 OA
ATOM     34  C   UNL     1      48.348  80.894  41.210  0.00  0.00    +0.231 C 
ATOM     35  O   UNL     1      47.302  80.349  40.453  0.00  0.00    -0.325 OA
BRANCH  34  36
ATOM     36  C   UNL     1      47.965  82.186  41.783  0.00  0.00    +0.041 A 
ATOM     37  C   UNL     1      47.589  83.241  40.936  0.00  0.00    +0.059 A 
ATOM     38  C   UNL     1      47.302  84.493  41.418  0.00  0.00    +0.023 A 
ATOM     39  C   UNL     1      47.364  84.788  42.760  0.00  0.00    +0.058 A 
ATOM     40  C   UNL     1      47.728  83.776  43.600  0.00  0.00    +0.011 A 
ATOM     41  C   UNL     1      48.026  82.491  43.115  0.00  0.00    +0.002 A 
ATOM     42 CL   UNL     1      46.989  86.398  43.358  0.00  0.00    -0.082 Cl
ATOM     43 CL   UNL     1      47.494  82.885  39.212  0.00  0.00    -0.082 Cl
ENDBRANCH  34  36
BRANCH  34  44
ATOM     44  C   UNL     1      49.618  80.972  40.345  0.00  0.00    +0.190 C 
BRANCH  44  45
ATOM     45  N   UNL     1      50.712  81.397  41.232  0.00  0.00    -0.225 N 
ATOM     46  C   UNL     1      51.769  82.159  40.783  0.00  0.00    +0.197 A 
ATOM     47  N   UNL     1      52.576  82.389  41.816  0.00  0.00    -0.201 NA
ATOM     48  C   UNL     1      52.076  81.803  42.906  0.00  0.00    +0.221 A 
ATOM     49  N   UNL     1      50.945  81.217  42.491  0.00  0.00    -0.145 NA
ENDBRANCH  44  45
ENDBRANCH  34  44
ENDBRANCH  30  31
ENDBRANCH  29  30
ENDBRANCH   4  29
TORSDOF 11
