REMARK  Name = Ivabradine
REMARK  10 active torsions:
REMARK  status: ('A' for Active; 'I' for Inactive)
REMARK    1  A    between atoms: N_2  and  C_3
REMARK    2  A    between atoms: N_2  and  C_22
REMARK    3  A    between atoms: C_3  and  C_4
REMARK    4  A    between atoms: C_4  and  C_5
REMARK    5  A    between atoms: C_5  and  N_6
REMARK    6  A    between atoms: C_11  and  O_20
REMARK    7  A    between atoms: C_12  and  O_18
REMARK    8  A    between atoms: C_22  and  C_23
REMARK    9  A    between atoms: C_27  and  O_33
REMARK   10  A    between atoms: C_28  and  O_31
REMARK                            x       y       z     vdW  Elec       q    Type
REMARK                         _______ _______ _______ _____ _____    ______ ____
ROOT
ATOM      1  C   UNL     1      47.460  81.041  41.350  0.00  0.00    +0.039 C 
ENDROOT
BRANCH   1   2
ATOM      2  C   UNL     1      48.809  80.970  40.671  0.00  0.00    +0.074 C 
BRANCH   2   4
ATOM      3  C   UNL     1      49.311  79.097  42.128  0.00  0.00    +0.090 C 
ATOM      4  N   UNL     1      49.749  80.260  41.454  0.00  0.00    -0.271 NA
BRANCH   4   5
ATOM      5  C   UNL     1      50.869  80.945  41.961  0.00  0.00    +0.077 C 
BRANCH   5   6
ATOM      6  C   UNL     1      51.033  82.379  41.511  0.00  0.00    +0.042 C 
ATOM      7  C   UNL     1      52.390  82.949  41.481  0.00  0.00    +0.032 C 
ATOM      8  C   UNL     1      51.955  83.843  42.569  0.00  0.00    -0.023 A 
ATOM      9  C   UNL     1      52.273  84.876  43.461  0.00  0.00    +0.035 A 
ATOM     10  C   UNL     1      51.393  85.393  44.374  0.00  0.00    +0.172 A 
ATOM     11  C   UNL     1      50.130  84.834  44.382  0.00  0.00    +0.172 A 
ATOM     12  C   UNL     1      49.789  83.818  43.520  0.00  0.00    +0.036 A 
ATOM     13  C   UNL     1      50.730  83.311  42.588  0.00  0.00    -0.022 A 
BRANCH  11  14
ATOM     14  O   UNL     1      49.218  85.331  45.291  0.00  0.00    -0.468 OA
ATOM     15  C   UNL     1      47.838  85.177  45.026  0.00  0.00    +0.253 C 
ENDBRANCH  11  14
BRANCH  10  16
ATOM     16  O   UNL     1      51.681  86.408  45.259  0.00  0.00    -0.468 OA
ATOM     17  C   UNL     1      52.942  86.866  45.628  0.00  0.00    +0.253 C 
ENDBRANCH  10  16
ENDBRANCH   5   6
ENDBRANCH   4   5
ENDBRANCH   2   4
ENDBRANCH   1   2
BRANCH   1  18
ATOM     18  C   UNL     1      46.380  81.647  40.516  0.00  0.00    +0.095 C 
BRANCH  18  19
ATOM     19  N   UNL     1      45.567  80.527  40.029  0.00  0.00    -0.279 N 
ATOM     20  C   UNL     1      45.504  79.427  40.951  0.00  0.00    +0.098 C 
ATOM     21  C   UNL     1      45.408  78.100  40.261  0.00  0.00    +0.048 C 
ATOM     22  C   UNL     1      44.047  77.923  39.681  0.00  0.00    -0.021 A 
ATOM     23  C   UNL     1      43.318  76.907  40.258  0.00  0.00    +0.036 A 
ATOM     24  C   UNL     1      42.039  76.617  39.835  0.00  0.00    +0.172 A 
ATOM     25  C   UNL     1      41.524  77.383  38.815  0.00  0.00    +0.172 A 
ATOM     26  C   UNL     1      42.253  78.419  38.219  0.00  0.00    +0.036 A 
ATOM     27  C   UNL     1      43.530  78.702  38.647  0.00  0.00    -0.014 A 
ATOM     28  C   UNL     1      44.145  79.824  37.905  0.00  0.00    +0.111 C 
ATOM     29  C   UNL     1      44.973  80.682  38.764  0.00  0.00    +0.230 C 
ATOM     30  O   UNL     1      45.205  81.819  38.247  0.00  0.00    -0.275 OA
BRANCH  25  31
ATOM     31  O   UNL     1      40.235  77.127  38.353  0.00  0.00    -0.468 OA
ATOM     32  C   UNL     1      40.009  76.706  37.033  0.00  0.00    +0.253 C 
ENDBRANCH  25  31
BRANCH  24  33
ATOM     33  O   UNL     1      41.292  75.601  40.403  0.00  0.00    -0.468 OA
ATOM     34  C   UNL     1      41.840  74.702  41.350  0.00  0.00    +0.253 C 
ENDBRANCH  24  33
ENDBRANCH  18  19
ENDBRANCH   1  18
TORSDOF 10
