REMARK  Name = Ivacaftor
REMARK  4 active torsions:
REMARK  status: ('A' for Active; 'I' for Inactive)
REMARK    1  A    between atoms: C_2  and  C_5
REMARK    2  A    between atoms: C_7  and  C_26
REMARK    3  A    between atoms: C_10  and  N_11
REMARK    4  A    between atoms: C_12  and  C_14
REMARK                            x       y       z     vdW  Elec       q    Type
REMARK                         _______ _______ _______ _____ _____    ______ ____
ROOT
ATOM      1  C   UNL     1      49.074  83.328  42.114  0.00  0.00    -0.008 A 
ATOM      2  C   UNL     1      50.329  83.940  42.219  0.00  0.00    -0.004 A 
ATOM      3  C   UNL     1      51.389  83.607  41.417  0.00  0.00    +0.016 A 
ATOM      4  C   UNL     1      51.203  82.630  40.475  0.00  0.00    +0.193 A 
ATOM      5  C   UNL     1      49.967  82.019  40.364  0.00  0.00    +0.058 A 
ATOM      6  C   UNL     1      48.874  82.348  41.176  0.00  0.00    +0.073 A 
ATOM      7  O   UNL     1      52.248  82.234  39.615  0.00  0.00    -0.287 OA
ENDROOT
BRANCH   1   9
ATOM      8  C   UNL     1      48.465  84.575  44.199  0.00  0.00    +0.004 C 
ATOM      9  C   UNL     1      47.980  83.766  43.015  0.00  0.00    +0.020 C 
ATOM     10  C   UNL     1      46.874  84.498  42.322  0.00  0.00    +0.004 C 
ATOM     11  C   UNL     1      47.316  82.528  43.660  0.00  0.00    +0.004 C 
ENDBRANCH   1   9
BRANCH   3  12
ATOM     12  C   UNL     1      52.676  84.305  41.594  0.00  0.00    +0.022 C 
ATOM     13  C   UNL     1      53.170  84.902  40.302  0.00  0.00    +0.004 C 
ATOM     14  C   UNL     1      53.703  83.278  42.050  0.00  0.00    +0.004 C 
ATOM     15  C   UNL     1      52.578  85.435  42.598  0.00  0.00    +0.004 C 
ENDBRANCH   3  12
BRANCH   6  16
ATOM     16  N   UNL     1      47.604  81.708  41.048  0.00  0.00    -0.176 NA
ATOM     17  C   UNL     1      46.696  81.798  39.988  0.00  0.00    +0.274 C 
ATOM     18  O   UNL     1      46.803  82.759  39.196  0.00  0.00    -0.268 OA
BRANCH  17  19
ATOM     19  C   UNL     1      45.596  80.848  39.704  0.00  0.00    +0.113 A 
ATOM     20  C   UNL     1      44.795  81.102  38.590  0.00  0.00    +0.107 A 
ATOM     21  N   UNL     1      43.773  80.331  38.218  0.00  0.00    -0.243 NA
ATOM     22  C   UNL     1      43.477  79.235  38.946  0.00  0.00    +0.084 A 
ATOM     23  C   UNL     1      42.412  78.448  38.543  0.00  0.00    +0.019 A 
ATOM     24  C   UNL     1      42.101  77.323  39.282  0.00  0.00    +0.002 A 
ATOM     25  C   UNL     1      42.863  77.034  40.386  0.00  0.00    +0.000 A 
ATOM     26  C   UNL     1      43.928  77.816  40.795  0.00  0.00    +0.005 A 
ATOM     27  C   UNL     1      44.237  78.939  40.055  0.00  0.00    +0.057 A 
ATOM     28  C   UNL     1      45.311  79.750  40.444  0.00  0.00    +0.203 A 
ATOM     29  O   UNL     1      45.972  79.441  41.458  0.00  0.00    -0.286 OA
ENDBRANCH  17  19
ENDBRANCH   6  16
TORSDOF 4
