REMARK  Name = Ivosidenib
REMARK  7 active torsions:
REMARK  status: ('A' for Active; 'I' for Inactive)
REMARK    1  A    between atoms: C_6  and  C_7
REMARK    2  A    between atoms: N_9  and  C_10
REMARK    3  A    between atoms: N_9  and  C_17
REMARK    4  A    between atoms: C_17  and  C_18
REMARK    5  A    between atoms: C_17  and  C_25
REMARK    6  A    between atoms: N_27  and  C_28
REMARK    7  A    between atoms: C_38  and  C_40
REMARK                            x       y       z     vdW  Elec       q    Type
REMARK                         _______ _______ _______ _____ _____    ______ ____
ROOT
ATOM      1  C   UNL     1      46.510  80.692  41.750  0.00  0.00    +0.248 C 
ATOM      2  O   UNL     1      46.858  79.744  42.580  0.00  0.00    -0.273 OA
ATOM      3  N   UNL     1      45.878  80.299  40.577  0.00  0.00    -0.245 N 
ENDROOT
BRANCH   1   9
ATOM      4  C   UNL     1      45.922  82.623  43.224  0.00  0.00    +0.039 C 
ATOM      5  C   UNL     1      46.787  83.076  44.416  0.00  0.00    +0.088 C 
ATOM      6  C   UNL     1      47.902  82.128  44.230  0.00  0.00    +0.231 C 
ATOM      7  O   UNL     1      48.562  81.452  45.014  0.00  0.00    -0.274 OA
ATOM      8  N   UNL     1      48.162  82.097  42.792  0.00  0.00    -0.237 N 
ATOM      9  C   UNL     1      46.830  82.088  42.181  0.00  0.00    +0.158 C 
ATOM     10  C   UNL     1      49.386  82.093  42.103  0.00  0.00    +0.138 A 
ATOM     11  N   UNL     1      49.562  81.834  40.795  0.00  0.00    -0.229 NA
ATOM     12  C   UNL     1      50.808  81.838  40.200  0.00  0.00    +0.101 A 
ATOM     13  C   UNL     1      51.955  82.110  40.931  0.00  0.00    +0.031 A 
ATOM     14  C   UNL     1      51.813  82.375  42.230  0.00  0.00    +0.073 A 
ATOM     15  C   UNL     1      50.545  82.370  42.828  0.00  0.00    +0.045 A 
BRANCH  14  16
ATOM     16  C   UNL     1      52.963  82.698  43.169  0.00  0.00    +0.101 C 
ATOM     17  N   UNL     1      53.808  82.927  43.876  0.00  0.00    -0.191 NA
ENDBRANCH  14  16
ENDBRANCH   1   9
BRANCH   3  18
ATOM     18  C   UNL     1      45.983  81.192  39.414  0.00  0.00    +0.076 A 
ATOM     19  C   UNL     1      47.228  81.547  38.979  0.00  0.00    +0.048 A 
ATOM     20  C   UNL     1      47.455  82.464  37.946  0.00  0.00    +0.160 A 
ATOM     21  C   UNL     1      46.241  83.021  37.358  0.00  0.00    +0.128 A 
ATOM     22  N   UNL     1      45.097  82.653  37.798  0.00  0.00    -0.239 NA
ATOM     23  C   UNL     1      44.932  81.749  38.816  0.00  0.00    +0.114 A 
ATOM     24  F   UNL     1      48.602  82.876  37.463  0.00  0.00    -0.202 F 
ENDBRANCH   3  18
BRANCH   3  25
ATOM     25  C   UNL     1      45.233  79.045  40.365  0.00  0.00    +0.181 C 
BRANCH  25  26
ATOM     26  C   UNL     1      45.511  78.088  41.528  0.00  0.00    +0.015 A 
ATOM     27  C   UNL     1      44.840  78.370  42.715  0.00  0.00    -0.001 A 
ATOM     28  C   UNL     1      45.053  77.500  43.803  0.00  0.00    -0.000 A 
ATOM     29  C   UNL     1      45.871  76.450  43.681  0.00  0.00    +0.001 A 
ATOM     30  C   UNL     1      46.545  76.150  42.517  0.00  0.00    +0.011 A 
ATOM     31  C   UNL     1      46.317  77.045  41.417  0.00  0.00    +0.056 A 
ATOM     32 CL   UNL     1      47.184  76.659  39.976  0.00  0.00    -0.083 Cl
ENDBRANCH  25  26
BRANCH  25  33
ATOM     33  C   UNL     1      43.932  78.932  39.796  0.00  0.00    +0.264 C 
ATOM     34  O   UNL     1      43.205  79.908  39.391  0.00  0.00    -0.271 OA
ATOM     35  N   UNL     1      43.245  77.665  39.587  0.00  0.00    -0.205 NA
BRANCH  35  36
ATOM     36  C   UNL     1      41.955  77.573  39.027  0.00  0.00    +0.106 C 
ATOM     37  C   UNL     1      41.880  77.585  37.498  0.00  0.00    +0.088 C 
ATOM     38  C   UNL     1      40.712  76.597  37.667  0.00  0.00    +0.267 C 
ATOM     39  C   UNL     1      41.401  76.187  38.960  0.00  0.00    +0.088 C 
ATOM     40  F   UNL     1      40.669  75.651  36.699  0.00  0.00    -0.204 F 
ATOM     41  F   UNL     1      39.520  77.199  37.928  0.00  0.00    -0.204 F 
ENDBRANCH  35  36
ENDBRANCH  25  33
ENDBRANCH   3  25
TORSDOF 7
