REMARK  Name = Ixabepilone
REMARK  2 active torsions:
REMARK  status: ('A' for Active; 'I' for Inactive)
REMARK    1  A    between atoms: C_10  and  C_26
REMARK    2  A    between atoms: C_27  and  C_28
REMARK                            x       y       z     vdW  Elec       q    Type
REMARK                         _______ _______ _______ _____ _____    ______ ____
ROOT
ATOM      1  C   UNL     1      51.840  78.583  40.848  0.00  0.00    +0.003 C 
ATOM      2  C   UNL     1      51.051  78.691  42.139  0.00  0.00    +0.031 C 
ATOM      3  C   UNL     1      49.585  78.521  41.912  0.00  0.00    +0.003 C 
ATOM      4  C   UNL     1      49.123  77.079  41.872  0.00  0.00    +0.003 C 
ATOM      5  C   UNL     1      48.061  76.856  40.836  0.00  0.00    +0.030 C 
ATOM      6  C   UNL     1      46.778  76.351  41.406  0.00  0.00    +0.118 C 
ATOM      7  C   UNL     1      45.599  77.178  41.302  0.00  0.00    +0.142 C 
ATOM      8  O   UNL     1      45.798  76.243  40.315  0.00  0.00    -0.356 OA
ATOM      9  C   UNL     1      45.843  78.653  41.048  0.00  0.00    +0.058 C 
ATOM     10  C   UNL     1      44.688  79.452  41.541  0.00  0.00    +0.116 C 
ATOM     11  N   UNL     1      44.884  80.878  41.551  0.00  0.00    -0.203 NA
ATOM     12  C   UNL     1      45.976  81.621  41.076  0.00  0.00    +0.244 C 
ATOM     13  O   UNL     1      45.806  82.587  40.239  0.00  0.00    -0.273 OA
ATOM     14  C   UNL     1      47.406  81.418  41.444  0.00  0.00    +0.120 C 
ATOM     15  C   UNL     1      48.167  82.752  41.502  0.00  0.00    +0.167 C 
ATOM     16  C   UNL     1      48.821  82.941  42.860  0.00  0.00    +0.080 C 
ATOM     17  C   UNL     1      49.686  81.798  43.227  0.00  0.00    +0.154 C 
ATOM     18  O   UNL     1      49.629  81.363  44.371  0.00  0.00    -0.296 OA
ATOM     19  C   UNL     1      50.609  81.168  42.272  0.00  0.00    +0.088 C 
ATOM     20  C   UNL     1      51.324  79.995  42.859  0.00  0.00    +0.159 C 
ATOM     21  O   UNL     1      52.684  80.216  42.973  0.00  0.00    -0.223 OA
ATOM     22  C   UNL     1      51.667  82.153  41.770  0.00  0.00    +0.010 C 
ATOM     23  C   UNL     1      49.556  84.262  42.822  0.00  0.00    +0.010 C 
ATOM     24  C   UNL     1      47.704  83.085  43.885  0.00  0.00    +0.010 C 
ATOM     25  O   UNL     1      47.233  83.772  41.352  0.00  0.00    -0.222 OA
ATOM     26  C   UNL     1      46.812  75.206  42.373  0.00  0.00    +0.032 C 
ENDROOT
BRANCH  10  27
ATOM     27  C   UNL     1      43.451  79.231  40.700  0.00  0.00    -0.023 C 
ATOM     28  C   UNL     1      43.361  79.867  39.567  0.00  0.00    +0.013 C 
ATOM     29  C   UNL     1      42.427  78.322  41.251  0.00  0.00    +0.028 C 
BRANCH  28  30
ATOM     30  C   UNL     1      44.465  80.727  39.084  0.00  0.00    +0.087 A 
ATOM     31  C   UNL     1      44.683  80.895  37.740  0.00  0.00    +0.056 A 
ATOM     32  S   UNL     1      46.017  81.965  37.736  0.00  0.00    -0.070 S 
ATOM     33  C   UNL     1      46.216  82.131  39.422  0.00  0.00    +0.089 A 
ATOM     34  N   UNL     1      45.252  81.361  39.899  0.00  0.00    -0.243 NA
ATOM     35  C   UNL     1      47.221  82.943  40.207  0.00  0.00    +0.059 C 
ENDBRANCH  28  30
ENDBRANCH  10  27
TORSDOF 2
