REMARK  Name = Josamycin
REMARK  14 active torsions:
REMARK  status: ('A' for Active; 'I' for Inactive)
REMARK    1  A    between atoms: C_11  and  C_54
REMARK    2  A    between atoms: C_12  and  O_25
REMARK    3  A    between atoms: C_13  and  O_23
REMARK    4  A    between atoms: C_14  and  O_19
REMARK    5  A    between atoms: O_19  and  C_20
REMARK    6  A    between atoms: O_25  and  C_26
REMARK    7  A    between atoms: C_28  and  N_50
REMARK    8  A    between atoms: C_29  and  O_33
REMARK    9  A    between atoms: O_33  and  C_34
REMARK   10  A    between atoms: C_37  and  O_41
REMARK   11  A    between atoms: O_41  and  C_42
REMARK   12  A    between atoms: C_42  and  C_44
REMARK   13  A    between atoms: C_44  and  C_45
REMARK   14  A    between atoms: C_54  and  C_55
REMARK                            x       y       z     vdW  Elec       q    Type
REMARK                         _______ _______ _______ _____ _____    ______ ____
ROOT
ATOM      1  C   UNL     1      36.220  72.802  34.571  0.00  0.00    +0.048 C 
ATOM      2  C   UNL     1      35.767  73.105  36.009  0.00  0.00    +0.173 C 
ATOM      3  C   UNL     1      34.463  72.422  36.212  0.00  0.00    +0.070 C 
ATOM      4  C   UNL     1      33.609  73.010  37.238  0.00  0.00    -0.022 C 
ATOM      5  C   UNL     1      33.431  72.625  38.495  0.00  0.00    -0.005 C 
ATOM      6  C   UNL     1      34.011  71.540  39.232  0.00  0.00    -0.002 C 
ATOM      7  C   UNL     1      35.095  71.488  39.989  0.00  0.00    +0.006 C 
ATOM      8  C   UNL     1      36.034  72.553  40.301  0.00  0.00    +0.174 C 
ATOM      9  C   UNL     1      37.502  72.101  40.272  0.00  0.00    +0.035 C 
ATOM     10  C   UNL     1      38.412  73.195  40.665  0.00  0.00    +0.006 C 
ATOM     11  C   UNL     1      39.537  73.576  39.766  0.00  0.00    +0.038 C 
ATOM     12  C   UNL     1      39.789  75.028  39.675  0.00  0.00    +0.149 C 
ATOM     13  C   UNL     1      38.859  75.669  38.591  0.00  0.00    +0.183 C 
ATOM     14  C   UNL     1      39.254  75.333  37.218  0.00  0.00    +0.209 C 
ATOM     15  C   UNL     1      38.234  74.590  36.383  0.00  0.00    +0.156 C 
ATOM     16  C   UNL     1      36.926  75.251  36.285  0.00  0.00    +0.321 C 
ATOM     17  O   UNL     1      36.875  76.504  36.231  0.00  0.00    -0.250 OA
ATOM     18  O   UNL     1      35.748  74.478  36.249  0.00  0.00    -0.452 OA
ATOM     19  C   UNL     1      37.840  71.267  39.099  0.00  0.00    +0.003 C 
ATOM     20  O   UNL     1      35.819  73.742  39.648  0.00  0.00    -0.218 OA
ENDROOT
BRANCH  13  21
ATOM     21  O   UNL     1      38.941  77.035  38.875  0.00  0.00    -0.347 OA
ATOM     22  C   UNL     1      40.116  77.614  38.430  0.00  0.00    +0.174 C 
ENDBRANCH  13  21
BRANCH  14  23
ATOM     23  O   UNL     1      40.451  74.573  37.138  0.00  0.00    -0.449 OA
BRANCH  23  24
ATOM     24  C   UNL     1      40.689  73.634  36.141  0.00  0.00    +0.318 C 
ATOM     25  O   UNL     1      41.919  73.415  35.895  0.00  0.00    -0.250 OA
ATOM     26  C   UNL     1      39.601  72.940  35.418  0.00  0.00    +0.121 C 
ENDBRANCH  23  24
ENDBRANCH  14  23
BRANCH  12  27
ATOM     27  O   UNL     1      41.032  75.493  39.373  0.00  0.00    -0.328 OA
BRANCH  27  28
ATOM     28  C   UNL     1      41.574  76.368  40.324  0.00  0.00    +0.268 C 
ATOM     29  C   UNL     1      43.034  76.282  40.493  0.00  0.00    +0.225 C 
ATOM     30  C   UNL     1      43.706  77.347  39.596  0.00  0.00    +0.123 C 
ATOM     31  C   UNL     1      43.212  78.641  40.128  0.00  0.00    +0.162 C 
ATOM     32  C   UNL     1      41.705  78.666  39.784  0.00  0.00    +0.146 C 
ATOM     33  O   UNL     1      41.009  77.621  40.228  0.00  0.00    -0.329 OA
ATOM     34  C   UNL     1      41.551  79.049  38.337  0.00  0.00    +0.035 C 
ATOM     35  O   UNL     1      43.364  76.595  41.843  0.00  0.00    -0.216 OA
BRANCH  30  36
ATOM     36  N   UNL     1      45.148  77.178  39.645  0.00  0.00    -0.267 NA
ATOM     37  C   UNL     1      45.564  77.718  40.954  0.00  0.00    +0.090 C 
ATOM     38  C   UNL     1      45.423  75.753  39.720  0.00  0.00    +0.090 C 
ENDBRANCH  30  36
BRANCH  31  39
ATOM     39  O   UNL     1      43.762  79.790  39.641  0.00  0.00    -0.329 OA
BRANCH  39  40
ATOM     40  C   UNL     1      45.171  79.785  39.733  0.00  0.00    +0.238 C 
ATOM     41  C   UNL     1      45.716  80.777  38.799  0.00  0.00    +0.095 C 
ATOM     42  C   UNL     1      47.066  81.329  39.163  0.00  0.00    +0.170 C 
ATOM     43  C   UNL     1      47.406  81.281  40.609  0.00  0.00    +0.223 C 
ATOM     44  C   UNL     1      46.182  81.055  41.425  0.00  0.00    +0.160 C 
ATOM     45  O   UNL     1      45.456  79.971  41.065  0.00  0.00    -0.329 OA
ATOM     46  C   UNL     1      45.355  82.326  41.591  0.00  0.00    +0.036 C 
ATOM     47  C   UNL     1      48.181  80.575  38.427  0.00  0.00    +0.037 C 
ATOM     48  O   UNL     1      47.131  82.635  38.699  0.00  0.00    -0.222 OA
BRANCH  43  49
ATOM     49  O   UNL     1      48.030  82.505  40.950  0.00  0.00    -0.447 OA
BRANCH  49  50
ATOM     50  C   UNL     1      48.541  82.802  42.180  0.00  0.00    +0.317 C 
ATOM     51  O   UNL     1      48.877  81.855  42.941  0.00  0.00    -0.250 OA
BRANCH  50  52
ATOM     52  C   UNL     1      48.729  84.196  42.681  0.00  0.00    +0.110 C 
BRANCH  52  53
ATOM     53  C   UNL     1      50.192  84.324  43.061  0.00  0.00    +0.011 C 
ATOM     54  C   UNL     1      50.376  85.691  43.694  0.00  0.00    +0.001 C 
ATOM     55  C   UNL     1      51.058  84.261  41.795  0.00  0.00    +0.001 C 
ENDBRANCH  52  53
ENDBRANCH  50  52
ENDBRANCH  49  50
ENDBRANCH  43  49
ENDBRANCH  39  40
ENDBRANCH  31  39
ENDBRANCH  27  28
ENDBRANCH  12  27
BRANCH  11  56
ATOM     56  C   UNL     1      40.784  72.772  40.024  0.00  0.00    +0.075 C 
BRANCH  56  57
ATOM     57  C   UNL     1      41.302  72.815  41.393  0.00  0.00    +0.207 C 
ATOM     58  O   UNL     1      40.933  73.518  42.308  0.00  0.00    -0.288 OA
ENDBRANCH  56  57
ENDBRANCH  11  56
TORSDOF 14
