REMARK  Name = Kanamycin
REMARK  6 active torsions:
REMARK  status: ('A' for Active; 'I' for Inactive)
REMARK    1  A    between atoms: C_3  and  O_21
REMARK    2  A    between atoms: C_5  and  O_8
REMARK    3  A    between atoms: O_8  and  C_9
REMARK    4  A    between atoms: C_13  and  C_15
REMARK    5  A    between atoms: O_21  and  C_22
REMARK    6  A    between atoms: C_26  and  C_28
REMARK                            x       y       z     vdW  Elec       q    Type
REMARK                         _______ _______ _______ _____ _____    ______ ____
ROOT
ATOM      1  C   UNL     1      45.672  81.848  38.528  0.00  0.00    +0.043 C 
ATOM      2  C   UNL     1      44.696  80.729  38.773  0.00  0.00    +0.123 C 
ATOM      3  C   UNL     1      45.386  79.482  39.190  0.00  0.00    +0.168 C 
ATOM      4  C   UNL     1      46.814  79.691  39.614  0.00  0.00    +0.209 C 
ATOM      5  C   UNL     1      47.047  80.953  40.381  0.00  0.00    +0.168 C 
ATOM      6  C   UNL     1      46.514  82.175  39.722  0.00  0.00    +0.123 C 
ATOM      7  N   UNL     1      47.546  83.105  39.311  0.00  0.00    -0.130 NA
ATOM      8  O   UNL     1      47.267  78.633  40.426  0.00  0.00    -0.218 OA
ATOM      9  N   UNL     1      43.746  81.163  39.740  0.00  0.00    -0.130 NA
ENDROOT
BRANCH   5  10
ATOM     10  O   UNL     1      48.377  81.061  40.751  0.00  0.00    -0.327 OA
BRANCH  10  11
ATOM     11  C   UNL     1      48.621  81.355  42.050  0.00  0.00    +0.269 C 
ATOM     12  C   UNL     1      50.086  81.147  42.354  0.00  0.00    +0.241 C 
ATOM     13  C   UNL     1      50.736  82.479  42.737  0.00  0.00    +0.220 C 
ATOM     14  C   UNL     1      49.988  83.026  43.912  0.00  0.00    +0.213 C 
ATOM     15  C   UNL     1      48.513  83.025  43.588  0.00  0.00    +0.170 C 
ATOM     16  O   UNL     1      48.346  82.735  42.236  0.00  0.00    -0.327 OA
ATOM     17  O   UNL     1      50.262  82.281  45.069  0.00  0.00    -0.218 OA
ATOM     18  O   UNL     1      52.056  82.159  43.098  0.00  0.00    -0.217 OA
ATOM     19  O   UNL     1      50.761  80.770  41.169  0.00  0.00    -0.215 OA
BRANCH  15  20
ATOM     20  C   UNL     1      47.898  84.341  43.971  0.00  0.00    +0.142 C 
ATOM     21  N   UNL     1      48.766  85.398  43.486  0.00  0.00    -0.129 NA
ENDBRANCH  15  20
ENDBRANCH  10  11
ENDBRANCH   5  10
BRANCH   3  22
ATOM     22  O   UNL     1      44.745  78.796  40.201  0.00  0.00    -0.327 OA
BRANCH  22  23
ATOM     23  C   UNL     1      44.649  77.448  40.032  0.00  0.00    +0.268 C 
ATOM     24  C   UNL     1      44.166  76.642  41.180  0.00  0.00    +0.228 C 
ATOM     25  C   UNL     1      42.675  76.517  41.304  0.00  0.00    +0.160 C 
ATOM     26  C   UNL     1      41.936  76.523  40.002  0.00  0.00    +0.202 C 
ATOM     27  C   UNL     1      42.516  77.658  39.171  0.00  0.00    +0.182 C 
ATOM     28  O   UNL     1      43.827  77.278  38.885  0.00  0.00    -0.326 OA
ATOM     29  O   UNL     1      40.586  76.678  40.227  0.00  0.00    -0.219 OA
ATOM     30  N   UNL     1      42.390  75.234  41.951  0.00  0.00    -0.127 NA
ATOM     31  O   UNL     1      44.674  75.323  41.062  0.00  0.00    -0.216 OA
BRANCH  27  32
ATOM     32  C   UNL     1      41.784  77.832  37.873  0.00  0.00    +0.214 C 
ATOM     33  O   UNL     1      42.188  79.016  37.239  0.00  0.00    -0.218 OA
ENDBRANCH  27  32
ENDBRANCH  22  23
ENDBRANCH   3  22
TORSDOF 6
