REMARK  Name = Kawain
REMARK  3 active torsions:
REMARK  status: ('A' for Active; 'I' for Inactive)
REMARK    1  A    between atoms: O_2  and  C_3
REMARK    2  A    between atoms: C_8  and  C_10
REMARK    3  A    between atoms: C_11  and  C_12
REMARK                            x       y       z     vdW  Elec       q    Type
REMARK                         _______ _______ _______ _____ _____    ______ ____
ROOT
ATOM      1  C   UNL     1      44.767  79.275  40.082  0.00  0.00    +0.127 C 
ATOM      2  C   UNL     1      44.479  79.984  39.006  0.00  0.00    +0.114 C 
ATOM      3  C   UNL     1      45.132  81.258  38.753  0.00  0.00    +0.344 C 
ATOM      4  O   UNL     1      44.891  81.967  37.746  0.00  0.00    -0.245 OA
ATOM      5  O   UNL     1      46.059  81.696  39.675  0.00  0.00    -0.444 OA
ATOM      6  C   UNL     1      46.046  81.204  40.978  0.00  0.00    +0.199 C 
ATOM      7  C   UNL     1      45.770  79.737  41.091  0.00  0.00    +0.112 C 
ENDROOT
BRANCH   1   9
ATOM      8  C   UNL     1      43.186  77.581  39.439  0.00  0.00    +0.252 C 
ATOM      9  O   UNL     1      44.158  78.044  40.357  0.00  0.00    -0.475 OA
ENDBRANCH   1   9
BRANCH   6  10
ATOM     10  C   UNL     1      47.338  81.528  41.633  0.00  0.00    +0.017 C 
ATOM     11  C   UNL     1      47.815  82.739  41.576  0.00  0.00    -0.001 C 
BRANCH  11  12
ATOM     12  C   UNL     1      48.940  83.187  42.363  0.00  0.00    -0.000 A 
ATOM     13  C   UNL     1      50.084  82.404  42.355  0.00  0.00    -0.000 A 
ATOM     14  C   UNL     1      51.180  82.779  43.083  0.00  0.00    -0.000 A 
ATOM     15  C   UNL     1      51.139  83.934  43.819  0.00  0.00    -0.000 A 
ATOM     16  C   UNL     1      50.004  84.716  43.830  0.00  0.00    -0.000 A 
ATOM     17  C   UNL     1      48.880  84.349  43.096  0.00  0.00    -0.000 A 
ENDBRANCH  11  12
ENDBRANCH   6  10
TORSDOF 3
