REMARK  Name = Ketanserin
REMARK  5 active torsions:
REMARK  status: ('A' for Active; 'I' for Inactive)
REMARK    1  A    between atoms: N_3  and  C_16
REMARK    2  A    between atoms: C_6  and  C_7
REMARK    3  A    between atoms: C_7  and  C_9
REMARK    4  A    between atoms: C_16  and  C_17
REMARK    5  A    between atoms: C_17  and  N_18
REMARK                            x       y       z     vdW  Elec       q    Type
REMARK                         _______ _______ _______ _____ _____    ______ ____
ROOT
ATOM      1  C   UNL     1      48.461  81.575  42.525  0.00  0.00    +0.025 C 
ATOM      2  C   UNL     1      47.254  80.806  42.014  0.00  0.00    +0.073 C 
ATOM      3  N   UNL     1      46.587  81.556  41.001  0.00  0.00    -0.271 NA
ATOM      4  C   UNL     1      47.016  82.924  40.871  0.00  0.00    +0.073 C 
ATOM      5  C   UNL     1      48.482  83.042  40.537  0.00  0.00    +0.025 C 
ATOM      6  C   UNL     1      49.300  82.119  41.394  0.00  0.00    +0.065 C 
ENDROOT
BRANCH   6   7
ATOM      7  C   UNL     1      50.534  82.683  41.932  0.00  0.00    +0.173 C 
ATOM      8  O   UNL     1      51.613  82.200  41.410  0.00  0.00    -0.291 OA
BRANCH   7   9
ATOM      9  C   UNL     1      50.708  83.685  42.944  0.00  0.00    +0.035 A 
ATOM     10  C   UNL     1      49.588  84.356  43.428  0.00  0.00    +0.005 A 
ATOM     11  C   UNL     1      49.663  85.325  44.410  0.00  0.00    +0.030 A 
ATOM     12  C   UNL     1      50.898  85.623  44.916  0.00  0.00    +0.140 A 
ATOM     13  C   UNL     1      52.028  84.984  44.467  0.00  0.00    +0.030 A 
ATOM     14  C   UNL     1      51.920  84.024  43.488  0.00  0.00    +0.005 A 
ATOM     15  F   UNL     1      51.024  86.573  45.888  0.00  0.00    -0.204 F 
ENDBRANCH   7   9
ENDBRANCH   6   7
BRANCH   3  16
ATOM     16  C   UNL     1      46.540  80.895  39.730  0.00  0.00    +0.097 C 
BRANCH  16  17
ATOM     17  C   UNL     1      46.259  79.432  39.756  0.00  0.00    +0.131 C 
BRANCH  17  18
ATOM     18  N   UNL     1      44.938  79.050  39.359  0.00  0.00    -0.246 N 
ATOM     19  C   UNL     1      44.264  77.983  39.809  0.00  0.00    +0.266 A 
ATOM     20  O   UNL     1      44.793  77.211  40.642  0.00  0.00    -0.267 OA
ATOM     21  C   UNL     1      42.982  77.740  39.347  0.00  0.00    +0.074 A 
ATOM     22  C   UNL     1      42.283  76.637  39.812  0.00  0.00    +0.006 A 
ATOM     23  C   UNL     1      41.005  76.405  39.344  0.00  0.00    +0.000 A 
ATOM     24  C   UNL     1      40.399  77.237  38.425  0.00  0.00    +0.002 A 
ATOM     25  C   UNL     1      41.090  78.345  37.953  0.00  0.00    +0.019 A 
ATOM     26  C   UNL     1      42.364  78.558  38.433  0.00  0.00    +0.091 A 
ATOM     27  N   UNL     1      43.071  79.622  38.001  0.00  0.00    -0.192 NA
ATOM     28  C   UNL     1      44.302  79.854  38.446  0.00  0.00    +0.352 A 
ATOM     29  O   UNL     1      44.905  80.867  38.000  0.00  0.00    -0.244 OA
ENDBRANCH  17  18
ENDBRANCH  16  17
ENDBRANCH   3  16
TORSDOF 5
