REMARK  Name = Ketotifen
REMARK  0 active torsions:
REMARK  status: ('A' for Active; 'I' for Inactive)
REMARK                            x       y       z     vdW  Elec       q    Type
REMARK                         _______ _______ _______ _____ _____    ______ ____
ROOT
ATOM      1  C   UNL     1      39.159  77.810  37.281  0.00  0.00    +0.090 C 
ATOM      2  N   UNL     1      40.275  76.959  37.618  0.00  0.00    -0.271 NA
ATOM      3  C   UNL     1      40.499  77.045  39.038  0.00  0.00    +0.077 C 
ATOM      4  C   UNL     1      41.381  78.259  39.379  0.00  0.00    +0.039 C 
ATOM      5  C   UNL     1      42.765  78.044  38.796  0.00  0.00    -0.041 C 
ATOM      6  C   UNL     1      43.820  78.531  39.354  0.00  0.00    -0.008 C 
ATOM      7  C   UNL     1      44.594  79.655  38.755  0.00  0.00    +0.009 A 
ATOM      8  C   UNL     1      45.093  80.671  39.548  0.00  0.00    +0.064 A 
ATOM      9  C   UNL     1      45.051  80.854  41.020  0.00  0.00    +0.183 C 
ATOM     10  O   UNL     1      45.370  82.043  41.323  0.00  0.00    -0.290 OA
ATOM     11  C   UNL     1      44.720  79.934  42.114  0.00  0.00    +0.096 C 
ATOM     12  C   UNL     1      44.595  78.521  41.783  0.00  0.00    -0.014 A 
ATOM     13  C   UNL     1      44.944  77.717  42.840  0.00  0.00    -0.004 A 
ATOM     14  C   UNL     1      44.941  76.336  42.777  0.00  0.00    -0.000 A 
ATOM     15  C   UNL     1      44.571  75.735  41.595  0.00  0.00    -0.000 A 
ATOM     16  C   UNL     1      44.222  76.504  40.538  0.00  0.00    -0.000 A 
ATOM     17  C   UNL     1      44.230  77.871  40.624  0.00  0.00    -0.004 A 
ATOM     18  S   UNL     1      45.839  81.700  38.400  0.00  0.00    -0.084 S 
ATOM     19  C   UNL     1      45.500  80.820  36.978  0.00  0.00    +0.036 A 
ATOM     20  C   UNL     1      44.807  79.736  37.444  0.00  0.00    +0.008 A 
ATOM     21  C   UNL     1      42.691  77.082  37.665  0.00  0.00    +0.039 C 
ATOM     22  C   UNL     1      41.447  77.414  36.866  0.00  0.00    +0.077 C 
ENDROOT
TORSDOF 0
