REMARK  Name = Ketobemidone
REMARK  3 active torsions:
REMARK  status: ('A' for Active; 'I' for Inactive)
REMARK    1  A    between atoms: C_2  and  C_3
REMARK    2  A    between atoms: C_3  and  C_5
REMARK    3  A    between atoms: C_5  and  C_12
REMARK                            x       y       z     vdW  Elec       q    Type
REMARK                         _______ _______ _______ _____ _____    ______ ____
ROOT
ATOM      1  C   UNL     1      47.664  82.276  41.310  0.00  0.00    +0.073 C 
ATOM      2  C   UNL     1      47.661  82.820  39.879  0.00  0.00    +0.028 C 
ATOM      3  C   UNL     1      47.311  81.685  38.941  0.00  0.00    +0.073 C 
ATOM      4  N   UNL     1      45.962  81.209  39.091  0.00  0.00    -0.271 NA
ATOM      5  C   UNL     1      45.578  81.355  40.465  0.00  0.00    +0.073 C 
ATOM      6  C   UNL     1      46.829  81.037  41.297  0.00  0.00    +0.028 C 
ATOM      7  C   UNL     1      45.123  81.932  38.168  0.00  0.00    +0.090 C 
ENDROOT
BRANCH   1   8
ATOM      8  C   UNL     1      49.078  82.070  41.676  0.00  0.00    -0.013 A 
ATOM      9  C   UNL     1      50.115  82.917  41.383  0.00  0.00    +0.038 A 
ATOM     10  C   UNL     1      51.423  82.660  41.761  0.00  0.00    +0.195 A 
ATOM     11  C   UNL     1      51.712  81.518  42.456  0.00  0.00    +0.042 A 
ATOM     12  C   UNL     1      50.695  80.650  42.765  0.00  0.00    +0.003 A 
ATOM     13  C   UNL     1      49.391  80.920  42.381  0.00  0.00    -0.004 A 
ATOM     14  O   UNL     1      52.459  83.533  41.453  0.00  0.00    -0.287 OA
ENDBRANCH   1   8
BRANCH   1  15
ATOM     15  C   UNL     1      47.115  83.287  42.257  0.00  0.00    +0.154 C 
ATOM     16  O   UNL     1      45.970  83.669  42.091  0.00  0.00    -0.296 OA
BRANCH  15  18
ATOM     17  C   UNL     1      47.868  85.345  43.461  0.00  0.00    +0.008 C 
ATOM     18  C   UNL     1      47.869  83.855  43.383  0.00  0.00    +0.065 C 
ENDBRANCH  15  18
ENDBRANCH   1  15
TORSDOF 3
