REMARK  Name = Ketorolac
REMARK  3 active torsions:
REMARK  status: ('A' for Active; 'I' for Inactive)
REMARK    1  A    between atoms: C_7  and  C_8
REMARK    2  A    between atoms: C_8  and  C_10
REMARK    3  A    between atoms: C_16  and  C_17
REMARK                            x       y       z     vdW  Elec       q    Type
REMARK                         _______ _______ _______ _____ _____    ______ ____
ROOT
ATOM      1  C   UNL     1      48.805  83.516  41.732  0.00  0.00    +0.042 C 
ATOM      2  C   UNL     1      48.158  82.924  40.493  0.00  0.00    +0.107 C 
ATOM      3  N   UNL     1      47.594  81.668  40.988  0.00  0.00    -0.328 N 
ATOM      4  C   UNL     1      48.200  81.291  42.121  0.00  0.00    +0.048 A 
ATOM      5  C   UNL     1      47.643  80.111  42.552  0.00  0.00    +0.015 A 
ATOM      6  C   UNL     1      46.654  79.765  41.628  0.00  0.00    +0.022 A 
ATOM      7  C   UNL     1      46.640  80.749  40.663  0.00  0.00    +0.099 A 
ATOM      8  C   UNL     1      49.255  82.290  42.503  0.00  0.00    +0.143 C 
ENDROOT
BRANCH   8   9
ATOM      9  C   UNL     1      50.562  81.805  42.012  0.00  0.00    +0.370 C 
ATOM     10  O   UNL     1      51.615  82.198  42.556  0.00  0.00    -0.245 OA
ATOM     11  O   UNL     1      50.664  80.916  40.955  0.00  0.00    -0.245 OA
ENDBRANCH   8   9
BRANCH   7  12
ATOM     12  C   UNL     1      45.818  80.829  39.471  0.00  0.00    +0.211 C 
ATOM     13  O   UNL     1      45.984  81.775  38.650  0.00  0.00    -0.285 OA
BRANCH  12  14
ATOM     14  C   UNL     1      44.803  79.857  39.179  0.00  0.00    +0.040 A 
ATOM     15  C   UNL     1      43.903  79.889  38.154  0.00  0.00    +0.003 A 
ATOM     16  C   UNL     1      42.918  78.931  37.938  0.00  0.00    +0.000 A 
ATOM     17  C   UNL     1      42.842  77.880  38.812  0.00  0.00    +0.000 A 
ATOM     18  C   UNL     1      43.734  77.812  39.858  0.00  0.00    +0.000 A 
ATOM     19  C   UNL     1      44.695  78.769  40.050  0.00  0.00    +0.003 A 
ENDBRANCH  12  14
ENDBRANCH   7  12
TORSDOF 3
