REMARK  Name = Ketoprofen
REMARK  4 active torsions:
REMARK  status: ('A' for Active; 'I' for Inactive)
REMARK    1  A    between atoms: C_2  and  C_3
REMARK    2  A    between atoms: C_2  and  C_17
REMARK    3  A    between atoms: C_5  and  C_9
REMARK    4  A    between atoms: C_9  and  C_11
REMARK                            x       y       z     vdW  Elec       q    Type
REMARK                         _______ _______ _______ _____ _____    ______ ____
ROOT
ATOM      1  C   UNL     1      45.150  78.706  40.387  0.00  0.00    -0.012 A 
ATOM      2  C   UNL     1      45.903  79.856  40.270  0.00  0.00    -0.001 A 
ATOM      3  C   UNL     1      45.616  80.833  39.330  0.00  0.00    +0.039 A 
ATOM      4  C   UNL     1      44.534  80.640  38.486  0.00  0.00    +0.003 A 
ATOM      5  C   UNL     1      43.776  79.512  38.583  0.00  0.00    -0.000 A 
ATOM      6  C   UNL     1      44.074  78.558  39.515  0.00  0.00    -0.004 A 
ENDROOT
BRANCH   1   8
ATOM      7  C   UNL     1      46.567  76.818  40.821  0.00  0.00    +0.017 C 
ATOM      8  C   UNL     1      45.376  77.631  41.368  0.00  0.00    +0.126 C 
BRANCH   8   9
ATOM      9  C   UNL     1      44.244  76.716  41.526  0.00  0.00    +0.368 C 
ATOM     10  O   UNL     1      43.848  76.438  42.687  0.00  0.00    -0.245 OA
ATOM     11  O   UNL     1      43.571  76.127  40.462  0.00  0.00    -0.245 OA
ENDBRANCH   8   9
ENDBRANCH   1   8
BRANCH   3  12
ATOM     12  C   UNL     1      46.457  82.009  39.285  0.00  0.00    +0.196 C 
ATOM     13  O   UNL     1      46.371  82.799  38.282  0.00  0.00    -0.287 OA
BRANCH  12  14
ATOM     14  C   UNL     1      47.407  82.356  40.316  0.00  0.00    +0.039 A 
ATOM     15  C   UNL     1      46.970  82.776  41.541  0.00  0.00    +0.003 A 
ATOM     16  C   UNL     1      47.869  83.076  42.553  0.00  0.00    +0.000 A 
ATOM     17  C   UNL     1      49.236  82.942  42.293  0.00  0.00    +0.000 A 
ATOM     18  C   UNL     1      49.679  82.517  41.049  0.00  0.00    +0.000 A 
ATOM     19  C   UNL     1      48.776  82.220  40.046  0.00  0.00    +0.003 A 
ENDBRANCH  12  14
ENDBRANCH   3  12
TORSDOF 4
