REMARK  Name = Kinetin
REMARK  2 active torsions:
REMARK  status: ('A' for Active; 'I' for Inactive)
REMARK    1  A    between atoms: C_4  and  C_6
REMARK    2  A    between atoms: C_6  and  N_7
REMARK                            x       y       z     vdW  Elec       q    Type
REMARK                         _______ _______ _______ _____ _____    ______ ____
ROOT
ATOM      1  N   UNL     1      47.643  80.984  41.675  0.00  0.00    -0.211 NA
ATOM      2  C   UNL     1      46.936  81.344  40.510  0.00  0.00    +0.171 A 
ATOM      3  N   UNL     1      47.189  82.512  39.845  0.00  0.00    -0.206 NA
ATOM      4  C   UNL     1      46.507  82.838  38.740  0.00  0.00    +0.202 A 
ATOM      5  N   UNL     1      45.560  81.996  38.287  0.00  0.00    -0.203 NA
ATOM      6  C   UNL     1      45.276  80.837  38.907  0.00  0.00    +0.186 A 
ATOM      7  C   UNL     1      45.964  80.481  40.044  0.00  0.00    +0.152 A 
ATOM      8  N   UNL     1      45.537  79.295  40.511  0.00  0.00    -0.218 NA
ATOM      9  C   UNL     1      44.565  78.908  39.648  0.00  0.00    +0.200 A 
ATOM     10  N   UNL     1      44.406  79.825  38.689  0.00  0.00    -0.203 NA
ENDROOT
BRANCH   1  11
ATOM     11  C   UNL     1      48.920  81.585  41.971  0.00  0.00    +0.178 C 
BRANCH  11  15
ATOM     12  C   UNL     1      47.815  84.814  43.335  0.00  0.00    +0.043 A 
ATOM     13  C   UNL     1      49.181  84.900  43.385  0.00  0.00    +0.179 A 
ATOM     14  O   UNL     1      49.677  83.794  42.919  0.00  0.00    -0.453 OA
ATOM     15  C   UNL     1      48.753  82.945  42.549  0.00  0.00    +0.145 A 
ATOM     16  C   UNL     1      47.529  83.579  42.806  0.00  0.00    +0.038 A 
ENDBRANCH  11  15
ENDBRANCH   1  11
TORSDOF 2
