REMARK  Name = KU-0058948
REMARK  3 active torsions:
REMARK  status: ('A' for Active; 'I' for Inactive)
REMARK    1  A    between atoms: C_8  and  C_10
REMARK    2  A    between atoms: C_14  and  C_16
REMARK    3  A    between atoms: C_16  and  C_17
REMARK                            x       y       z     vdW  Elec       q    Type
REMARK                         _______ _______ _______ _____ _____    ______ ____
ROOT
ATOM      1  C   UNL     1      45.319  79.461  39.818  0.00  0.00    +0.081 A 
ATOM      2  C   UNL     1      45.953  78.277  40.092  0.00  0.00    +0.144 A 
ATOM      3  C   UNL     1      46.964  78.204  41.042  0.00  0.00    +0.029 A 
ATOM      4  C   UNL     1      47.346  79.363  41.736  0.00  0.00    -0.002 A 
ATOM      5  C   UNL     1      46.730  80.553  41.483  0.00  0.00    -0.016 A 
ATOM      6  C   UNL     1      45.713  80.563  40.508  0.00  0.00    +0.003 A 
ATOM      7  F   UNL     1      45.592  77.153  39.429  0.00  0.00    -0.204 F 
ENDROOT
BRANCH   1  15
ATOM      8  C   UNL     1      42.813  77.036  40.118  0.00  0.00    +0.040 C 
ATOM      9  C   UNL     1      41.944  76.583  38.970  0.00  0.00    +0.091 C 
ATOM     10  N   UNL     1      42.188  77.294  37.752  0.00  0.00    -0.216 NA
ATOM     11  C   UNL     1      41.288  78.400  37.519  0.00  0.00    +0.110 C 
ATOM     12  C   UNL     1      41.911  79.627  38.176  0.00  0.00    +0.112 C 
ATOM     13  N   UNL     1      42.910  79.209  39.129  0.00  0.00    -0.274 N 
ATOM     14  C   UNL     1      42.721  78.503  40.377  0.00  0.00    +0.095 C 
ATOM     15  C   UNL     1      44.261  79.526  38.824  0.00  0.00    +0.251 C 
ATOM     16  O   UNL     1      44.586  79.878  37.661  0.00  0.00    -0.270 OA
ENDBRANCH   1  15
BRANCH   5  17
ATOM     17  C   UNL     1      47.030  81.825  42.156  0.00  0.00    +0.074 C 
BRANCH  17  18
ATOM     18  C   UNL     1      48.481  82.115  42.288  0.00  0.00    +0.085 A 
ATOM     19  N   UNL     1      49.381  81.201  41.798  0.00  0.00    -0.149 NA
ATOM     20  N   UNL     1      50.662  81.464  41.853  0.00  0.00    -0.106 NA
ATOM     21  C   UNL     1      51.167  82.591  42.369  0.00  0.00    +0.297 A 
ATOM     22  O   UNL     1      52.410  82.819  42.409  0.00  0.00    -0.264 OA
ATOM     23  C   UNL     1      50.310  83.535  42.873  0.00  0.00    +0.061 A 
ATOM     24  C   UNL     1      50.815  84.699  43.423  0.00  0.00    +0.005 A 
ATOM     25  C   UNL     1      49.929  85.616  43.933  0.00  0.00    +0.000 A 
ATOM     26  C   UNL     1      48.571  85.416  43.915  0.00  0.00    +0.000 A 
ATOM     27  C   UNL     1      48.105  84.243  43.358  0.00  0.00    +0.001 A 
ATOM     28  C   UNL     1      48.947  83.280  42.826  0.00  0.00    +0.020 A 
ENDBRANCH  17  18
ENDBRANCH   5  17
TORSDOF 3
