REMARK  Name = L-alanyl-l-glutamine
REMARK  6 active torsions:
REMARK  status: ('A' for Active; 'I' for Inactive)
REMARK    1  A    between atoms: CA_2  and  C_3
REMARK    2  A    between atoms: N_5  and  CA_6
REMARK    3  A    between atoms: CA_6  and  CB_7
REMARK    4  A    between atoms: CA_6  and  C_12
REMARK    5  A    between atoms: CB_7  and  CG_8
REMARK    6  A    between atoms: CG_8  and  CD_9
REMARK                            x       y       z     vdW  Elec       q    Type
REMARK                         _______ _______ _______ _____ _____    ______ ____
ROOT
ATOM      1  CA  GLN A   2      46.428  81.121  40.297  0.00  0.00    +0.198 C 
ENDROOT
BRANCH   1   4
ATOM      2  C   ALA A   1      44.538  79.583  39.752  0.00  0.00    +0.259 C 
ATOM      3  O   ALA A   1      43.736  80.453  40.215  0.00  0.00    -0.272 OA
ATOM      4  N   GLN A   2      45.920  79.826  39.770  0.00  0.00    -0.194 NA
BRANCH   2   6
ATOM      5  CB  ALA A   1      43.490  77.526  40.429  0.00  0.00    +0.030 C 
ATOM      6  CA  ALA A   1      43.909  78.344  39.215  0.00  0.00    +0.169 C 
ATOM      7  N   ALA A   1      42.795  78.736  38.401  0.00  0.00    -0.123 NA
ENDBRANCH   2   6
ENDBRANCH   1   4
BRANCH   1   8
ATOM      8  C   GLN A   2      46.401  82.067  39.172  0.00  0.00    +0.384 C 
ATOM      9  O   GLN A   2      45.542  81.972  38.269  0.00  0.00    -0.244 OA
ATOM     10  OXT GLN A   2      47.362  83.100  39.111  0.00  0.00    -0.244 OA
ENDBRANCH   1   8
BRANCH   1  11
ATOM     11  CB  GLN A   2      47.807  80.937  40.824  0.00  0.00    +0.043 C 
BRANCH  11  12
ATOM     12  CG  GLN A   2      48.343  82.233  41.361  0.00  0.00    +0.091 C 
BRANCH  12  13
ATOM     13  CD  GLN A   2      49.723  82.063  41.898  0.00  0.00    +0.261 C 
ATOM     14  OE1 GLN A   2      49.963  81.084  42.624  0.00  0.00    -0.272 OA
ATOM     15  NE2 GLN A   2      50.704  83.014  41.568  0.00  0.00    -0.088 NA
ENDBRANCH  12  13
ENDBRANCH  11  12
ENDBRANCH   1  11
TORSDOF 6
