REMARK  Name = L-ornithine_L-aspartate
REMARK  7 active torsions:
REMARK  status: ('A' for Active; 'I' for Inactive)
REMARK    1  A    between atoms: C_1  and  C_2
REMARK    2  A    between atoms: C_1  and  C_8
REMARK    3  A    between atoms: C_2  and  CA_3
REMARK    4  A    between atoms: CA_3  and  C_4
REMARK    5  A    between atoms: CB_10  and  CA_11
REMARK    6  A    between atoms: CB_10  and  CG_16
REMARK    7  A    between atoms: CA_11  and  C_12
REMARK                            x       y       z     vdW  Elec       q    Type
REMARK                         _______ _______ _______ _____ _____    ______ ____
ROOT
ATOM      1  CA  UNL     1      50.170  82.431  43.013  0.00  0.00    +0.194 C 
ATOM      2  N   UNL     1      50.063  81.297  43.898  0.00  0.00    -0.121 NA
ENDROOT
BRANCH   1   3
ATOM      3  C   UNL     1      51.370  82.290  42.177  0.00  0.00    +0.382 C 
ATOM      4  O   UNL     1      52.099  81.265  42.187  0.00  0.00    -0.244 OA
ATOM      5  OXT UNL     1      51.732  83.325  41.331  0.00  0.00    -0.244 OA
ENDBRANCH   1   3
BRANCH   1   6
ATOM      6  C   UNL     1      48.914  82.643  42.197  0.00  0.00    +0.032 C 
BRANCH   6   7
ATOM      7  C   UNL     1      47.861  83.236  43.091  0.00  0.00    +0.023 C 
BRANCH   7   8
ATOM      8  C   UNL     1      47.874  84.734  43.106  0.00  0.00    +0.109 C 
ATOM      9  N   UNL     1      48.726  85.302  44.102  0.00  0.00    -0.131 NA
ENDBRANCH   7   8
ENDBRANCH   6   7
ENDBRANCH   1   6
TORSDOF 4
REMARK  Name = L-ornithine_L-aspartate
REMARK  7 active torsions:
REMARK  status: ('A' for Active; 'I' for Inactive)
REMARK    1  A    between atoms: C_1  and  C_2
REMARK    2  A    between atoms: C_1  and  C_8
REMARK    3  A    between atoms: C_2  and  CA_3
REMARK    4  A    between atoms: CA_3  and  C_4
REMARK    5  A    between atoms: CB_10  and  CA_11
REMARK    6  A    between atoms: CB_10  and  CG_16
REMARK    7  A    between atoms: CA_11  and  C_12
REMARK                            x       y       z     vdW  Elec       q    Type
REMARK                         _______ _______ _______ _____ _____    ______ ____
ROOT
ATOM      1  CA  ASP A   1      49.808  81.975  41.775  0.00  0.00    +0.206 C 
ATOM      2  N   ASP A   1      49.507  83.382  41.550  0.00  0.00    -0.120 NA
ENDROOT
BRANCH   1   3
ATOM      3  C   ASP A   1      50.730  81.923  42.933  0.00  0.00    +0.382 C 
ATOM      4  O   ASP A   1      51.056  82.974  43.583  0.00  0.00    -0.244 OA
ATOM      5  OXT ASP A   1      51.295  80.734  43.377  0.00  0.00    -0.244 OA
ENDBRANCH   1   3
BRANCH   1   6
ATOM      6  CB  ASP A   1      48.576  81.187  42.173  0.00  0.00    +0.145 C 
BRANCH   6   7
ATOM      7  CG  ASP A   1      47.550  81.191  41.127  0.00  0.00    +0.367 C 
ATOM      8  OD1 ASP A   1      47.580  82.085  40.246  0.00  0.00    -0.246 OA
ATOM      9  OD2 ASP A   1      46.549  80.249  41.082  0.00  0.00    -0.246 OA
ENDBRANCH   6   7
ENDBRANCH   1   6
TORSDOF 3
