REMARK  Name = L-Proline
REMARK  1 active torsions:
REMARK  status: ('A' for Active; 'I' for Inactive)
REMARK    1  A    between atoms: CA_3  and  C_6
REMARK                            x       y       z     vdW  Elec       q    Type
REMARK                         _______ _______ _______ _____ _____    ______ ____
ROOT
ATOM      1  CG  PRO A   1      45.927  78.919  41.022  0.00  0.00    +0.021 C 
ATOM      2  CB  PRO A   1      46.479  80.283  40.703  0.00  0.00    +0.030 C 
ATOM      3  CA  PRO A   1      45.295  80.987  40.089  0.00  0.00    +0.176 C 
ATOM      4  N   PRO A   1      44.431  79.978  39.558  0.00  0.00    -0.208 NA
ATOM      5  CD  PRO A   1      44.978  78.694  39.851  0.00  0.00    +0.089 C 
ENDROOT
BRANCH   3   6
ATOM      6  C   PRO A   1      45.758  81.888  38.978  0.00  0.00    +0.380 C 
ATOM      7  O   PRO A   1      45.101  81.970  37.910  0.00  0.00    -0.244 OA
ATOM      8  OXT PRO A   1      46.916  82.638  39.124  0.00  0.00    -0.244 OA
ENDBRANCH   3   6
TORSDOF 1
