REMARK  Name = L-Tyrosine
REMARK  3 active torsions:
REMARK  status: ('A' for Active; 'I' for Inactive)
REMARK    1  A    between atoms: CG_6  and  CB_7
REMARK    2  A    between atoms: CB_7  and  CA_8
REMARK    3  A    between atoms: CA_8  and  C_9
REMARK                            x       y       z     vdW  Elec       q    Type
REMARK                         _______ _______ _______ _____ _____    ______ ____
ROOT
ATOM      1  CD2 TYR A   1      47.813  82.638  40.353  0.00  0.00    -0.001 A 
ATOM      2  CE2 TYR A   1      46.911  82.539  39.313  0.00  0.00    +0.042 A 
ATOM      3  CZ  TYR A   1      45.902  81.599  39.303  0.00  0.00    +0.196 A 
ATOM      4  CE1 TYR A   1      45.832  80.752  40.390  0.00  0.00    +0.042 A 
ATOM      5  CD1 TYR A   1      46.736  80.855  41.427  0.00  0.00    -0.001 A 
ATOM      6  CG  TYR A   1      47.748  81.794  41.442  0.00  0.00    -0.020 A 
ATOM      7  OH  TYR A   1      44.997  81.505  38.252  0.00  0.00    -0.287 OA
ENDROOT
BRANCH   6   8
ATOM      8  CB  TYR A   1      48.703  81.875  42.577  0.00  0.00    +0.057 C 
BRANCH   8   9
ATOM      9  CA  TYR A   1      49.802  80.850  42.491  0.00  0.00    +0.199 C 
ATOM     10  N   TYR A   1      49.996  80.499  41.100  0.00  0.00    -0.120 NA
BRANCH   9  11
ATOM     11  C   TYR A   1      51.040  81.485  42.988  0.00  0.00    +0.382 C 
ATOM     12  O   TYR A   1      51.148  81.728  44.210  0.00  0.00    -0.244 OA
ATOM     13  OXT TYR A   1      52.102  81.831  42.166  0.00  0.00    -0.244 OA
ENDBRANCH   9  11
ENDBRANCH   8   9
ENDBRANCH   6   8
TORSDOF 3
