REMARK  Name = Labetalol
REMARK  8 active torsions:
REMARK  status: ('A' for Active; 'I' for Inactive)
REMARK    1  A    between atoms: C_2  and  C_3
REMARK    2  A    between atoms: C_2  and  N_11
REMARK    3  A    between atoms: C_3  and  C_4
REMARK    4  A    between atoms: C_4  and  C_5
REMARK    5  A    between atoms: N_11  and  C_12
REMARK    6  A    between atoms: C_12  and  C_13
REMARK    7  A    between atoms: C_13  and  C_14
REMARK    8  A    between atoms: C_16  and  C_21
REMARK                            x       y       z     vdW  Elec       q    Type
REMARK                         _______ _______ _______ _____ _____    ______ ____
ROOT
ATOM      1  C   UNL     1      45.866  79.086  40.787  0.00  0.00    +0.126 C 
ENDROOT
BRANCH   1   2
ATOM      2  C   UNL     1      45.427  79.271  39.329  0.00  0.00    +0.192 C 
ATOM      3  O   UNL     1      45.515  80.588  38.948  0.00  0.00    -0.217 OA
BRANCH   2   4
ATOM      4  C   UNL     1      44.089  78.665  39.127  0.00  0.00    +0.009 A 
ATOM      5  C   UNL     1      43.643  77.563  39.825  0.00  0.00    +0.006 A 
ATOM      6  C   UNL     1      42.377  77.021  39.605  0.00  0.00    +0.095 A 
ATOM      7  C   UNL     1      41.528  77.580  38.672  0.00  0.00    +0.200 A 
ATOM      8  C   UNL     1      41.964  78.682  37.969  0.00  0.00    +0.042 A 
ATOM      9  C   UNL     1      43.225  79.207  38.201  0.00  0.00    +0.001 A 
ATOM     10  O   UNL     1      40.277  77.013  38.481  0.00  0.00    -0.286 OA
BRANCH   6  11
ATOM     11  C   UNL     1      41.924  75.848  40.357  0.00  0.00    +0.287 C 
ATOM     12  O   UNL     1      40.786  75.353  40.182  0.00  0.00    -0.267 OA
ATOM     13  N   UNL     1      42.766  75.234  41.313  0.00  0.00    -0.084 NA
ENDBRANCH   6  11
ENDBRANCH   2   4
ENDBRANCH   1   2
BRANCH   1  14
ATOM     14  N   UNL     1      47.247  79.378  40.965  0.00  0.00    -0.216 NA
BRANCH  14  16
ATOM     15  C   UNL     1      46.468  81.348  42.252  0.00  0.00    +0.019 C 
ATOM     16  C   UNL     1      47.444  80.746  41.302  0.00  0.00    +0.073 C 
BRANCH  16  17
ATOM     17  C   UNL     1      48.835  80.990  41.852  0.00  0.00    +0.022 C 
BRANCH  17  18
ATOM     18  C   UNL     1      49.378  82.254  41.225  0.00  0.00    +0.028 C 
BRANCH  18  19
ATOM     19  C   UNL     1      49.378  83.382  42.181  0.00  0.00    -0.022 A 
ATOM     20  C   UNL     1      50.525  83.864  42.755  0.00  0.00    -0.004 A 
ATOM     21  C   UNL     1      50.431  84.927  43.645  0.00  0.00    -0.000 A 
ATOM     22  C   UNL     1      49.236  85.513  43.973  0.00  0.00    -0.000 A 
ATOM     23  C   UNL     1      48.073  85.022  43.389  0.00  0.00    -0.000 A 
ATOM     24  C   UNL     1      48.180  83.965  42.506  0.00  0.00    -0.004 A 
ENDBRANCH  18  19
ENDBRANCH  17  18
ENDBRANCH  16  17
ENDBRANCH  14  16
ENDBRANCH   1  14
TORSDOF 8
