REMARK  Name = Lactitol
REMARK  8 active torsions:
REMARK  status: ('A' for Active; 'I' for Inactive)
REMARK    1  A    between atoms: C_1  and  C_2
REMARK    2  A    between atoms: C_6  and  O_8
REMARK    3  A    between atoms: O_8  and  C_9
REMARK    4  A    between atoms: C_9  and  C_10
REMARK    5  A    between atoms: C_9  and  C_14
REMARK    6  A    between atoms: C_10  and  C_11
REMARK    7  A    between atoms: C_14  and  C_15
REMARK    8  A    between atoms: C_15  and  C_16
REMARK                            x       y       z     vdW  Elec       q    Type
REMARK                         _______ _______ _______ _____ _____    ______ ____
ROOT
ATOM      1  O   UNL     1      46.438  80.275  41.207  0.00  0.00    -0.326 OA
ENDROOT
BRANCH   1   6
ATOM      2  C   UNL     1      43.887  78.030  40.434  0.00  0.00    +0.183 C 
ATOM      3  C   UNL     1      44.265  76.859  41.294  0.00  0.00    +0.214 C 
ATOM      4  C   UNL     1      45.726  76.660  41.455  0.00  0.00    +0.220 C 
ATOM      5  C   UNL     1      46.339  78.001  41.861  0.00  0.00    +0.241 C 
ATOM      6  C   UNL     1      45.982  79.001  40.820  0.00  0.00    +0.270 C 
ATOM      7  O   UNL     1      44.628  79.147  40.613  0.00  0.00    -0.326 OA
ATOM      8  O   UNL     1      45.763  78.300  43.112  0.00  0.00    -0.215 OA
ATOM      9  O   UNL     1      46.369  76.081  40.397  0.00  0.00    -0.217 OA
ATOM     10  O   UNL     1      43.606  75.739  40.791  0.00  0.00    -0.218 OA
BRANCH   2  11
ATOM     11  C   UNL     1      43.814  77.590  38.968  0.00  0.00    +0.214 C 
ATOM     12  O   UNL     1      42.578  77.896  38.412  0.00  0.00    -0.218 OA
ENDBRANCH   2  11
ENDBRANCH   1   6
BRANCH   1  13
ATOM     13  C   UNL     1      47.141  80.938  40.236  0.00  0.00    +0.183 C 
BRANCH  13  14
ATOM     14  C   UNL     1      46.355  81.389  39.051  0.00  0.00    +0.214 C 
ATOM     15  O   UNL     1      46.099  82.726  38.963  0.00  0.00    -0.218 OA
BRANCH  14  16
ATOM     16  C   UNL     1      45.058  80.632  38.853  0.00  0.00    +0.217 C 
ATOM     17  O   UNL     1      44.455  81.060  37.676  0.00  0.00    -0.217 OA
ENDBRANCH  14  16
ENDBRANCH  13  14
BRANCH  13  18
ATOM     18  C   UNL     1      48.081  81.997  40.693  0.00  0.00    +0.214 C 
ATOM     19  O   UNL     1      48.734  82.605  39.584  0.00  0.00    -0.218 OA
BRANCH  18  20
ATOM     20  C   UNL     1      49.162  81.591  41.629  0.00  0.00    +0.217 C 
ATOM     21  O   UNL     1      48.763  81.096  42.840  0.00  0.00    -0.217 OA
BRANCH  20  22
ATOM     22  C   UNL     1      49.982  82.861  41.923  0.00  0.00    +0.217 C 
ATOM     23  O   UNL     1      51.078  82.516  42.698  0.00  0.00    -0.217 OA
ENDBRANCH  20  22
ENDBRANCH  18  20
ENDBRANCH  13  18
ENDBRANCH   1  13
TORSDOF 8
