REMARK  Name = Lamivudine
REMARK  2 active torsions:
REMARK  status: ('A' for Active; 'I' for Inactive)
REMARK    1  A    between atoms: C_2  and  N_8
REMARK    2  A    between atoms: C_4  and  C_6
REMARK                            x       y       z     vdW  Elec       q    Type
REMARK                         _______ _______ _______ _____ _____    ______ ____
ROOT
ATOM      1  N   UNL     1      45.559  80.304  39.865  0.00  0.00    -0.255 N 
ATOM      2  C   UNL     1      46.584  80.659  40.661  0.00  0.00    +0.085 A 
ATOM      3  C   UNL     1      47.326  81.811  40.444  0.00  0.00    +0.057 A 
ATOM      4  C   UNL     1      47.025  82.641  39.380  0.00  0.00    +0.176 A 
ATOM      5  N   UNL     1      45.990  82.259  38.597  0.00  0.00    -0.174 NA
ATOM      6  C   UNL     1      45.286  81.137  38.829  0.00  0.00    +0.353 A 
ATOM      7  O   UNL     1      44.317  80.786  38.089  0.00  0.00    -0.244 OA
ATOM      8  N   UNL     1      47.754  83.827  39.119  0.00  0.00    -0.107 NA
ENDROOT
BRANCH   1  10
ATOM      9  C   UNL     1      43.671  79.435  41.097  0.00  0.00    +0.114 C 
ATOM     10  C   UNL     1      44.774  79.104  40.078  0.00  0.00    +0.220 C 
ATOM     11  O   UNL     1      45.584  78.160  40.633  0.00  0.00    -0.323 OA
ATOM     12  C   UNL     1      44.875  77.009  40.879  0.00  0.00    +0.198 C 
ATOM     13  S   UNL     1      43.361  77.706  41.655  0.00  0.00    -0.105 S 
BRANCH  12  14
ATOM     14  C   UNL     1      44.532  76.218  39.652  0.00  0.00    +0.223 C 
ATOM     15  O   UNL     1      45.720  75.582  39.235  0.00  0.00    -0.217 OA
ENDBRANCH  12  14
ENDBRANCH   1  10
TORSDOF 2
