REMARK  Name = Lanatoside_a
REMARK  12 active torsions:
REMARK  status: ('A' for Active; 'I' for Inactive)
REMARK    1  A    between atoms: C_3  and  O_36
REMARK    2  A    between atoms: C_6  and  O_8
REMARK    3  A    between atoms: O_8  and  C_9
REMARK    4  A    between atoms: C_25  and  C_26
REMARK    5  A    between atoms: O_36  and  C_37
REMARK    6  A    between atoms: C_40  and  O_44
REMARK    7  A    between atoms: O_44  and  C_45
REMARK    8  A    between atoms: C_47  and  O_64
REMARK    9  A    between atoms: C_48  and  O_52
REMARK   10  A    between atoms: O_52  and  C_53
REMARK   11  A    between atoms: C_57  and  C_59
REMARK   12  A    between atoms: O_64  and  C_65
REMARK                            x       y       z     vdW  Elec       q    Type
REMARK                         _______ _______ _______ _____ _____    ______ ____
ROOT
ATOM      1  C   UNL     1      40.716  78.769  36.679  0.00  0.00    +0.035 C 
ATOM      2  C   UNL     1      40.836  78.089  38.026  0.00  0.00    +0.147 C 
ATOM      3  C   UNL     1      40.651  76.628  37.850  0.00  0.00    +0.175 C 
ATOM      4  C   UNL     1      41.798  75.891  38.514  0.00  0.00    +0.186 C 
ATOM      5  C   UNL     1      41.948  76.473  39.904  0.00  0.00    +0.097 C 
ATOM      6  C   UNL     1      42.280  77.914  39.829  0.00  0.00    +0.238 C 
ATOM      7  O   UNL     1      42.126  78.334  38.487  0.00  0.00    -0.330 OA
ATOM      8  O   UNL     1      43.001  76.118  37.846  0.00  0.00    -0.220 OA
ENDROOT
BRANCH   6   9
ATOM      9  O   UNL     1      43.574  78.243  40.174  0.00  0.00    -0.333 OA
BRANCH   9  10
ATOM     10  C   UNL     1      44.241  79.020  39.251  0.00  0.00    +0.118 C 
ATOM     11  C   UNL     1      43.772  80.434  39.388  0.00  0.00    +0.030 C 
ATOM     12  C   UNL     1      44.690  81.376  40.069  0.00  0.00    +0.002 C 
ATOM     13  C   UNL     1      46.152  81.151  39.736  0.00  0.00    +0.000 C 
ATOM     14  C   UNL     1      46.492  79.748  40.103  0.00  0.00    +0.002 C 
ATOM     15  C   UNL     1      45.715  78.828  39.233  0.00  0.00    +0.030 C 
ATOM     16  C   UNL     1      46.169  79.563  41.565  0.00  0.00    +0.000 C 
ATOM     17  C   UNL     1      47.011  80.475  42.421  0.00  0.00    +0.002 C 
ATOM     18  C   UNL     1      47.015  81.888  41.979  0.00  0.00    +0.028 C 
ATOM     19  C   UNL     1      46.990  82.144  40.517  0.00  0.00    +0.002 C 
ATOM     20  C   UNL     1      48.310  82.340  39.868  0.00  0.00    +0.000 C 
ATOM     21  C   UNL     1      49.522  82.031  40.654  0.00  0.00    +0.003 C 
ATOM     22  C   UNL     1      49.487  82.425  42.115  0.00  0.00    +0.029 C 
ATOM     23  C   UNL     1      48.121  82.693  42.623  0.00  0.00    +0.127 C 
ATOM     24  C   UNL     1      47.888  84.172  42.398  0.00  0.00    +0.031 C 
ATOM     25  C   UNL     1      49.235  84.790  42.565  0.00  0.00    +0.007 C 
ATOM     26  C   UNL     1      50.232  83.726  42.262  0.00  0.00    +0.024 C 
ATOM     27  O   UNL     1      48.032  82.475  44.000  0.00  0.00    -0.226 OA
ATOM     28  C   UNL     1      50.155  81.370  42.961  0.00  0.00    +0.003 C 
ATOM     29  C   UNL     1      46.316  81.435  38.263  0.00  0.00    +0.000 C 
BRANCH  26  30
ATOM     30  C   UNL     1      51.246  83.736  43.353  0.00  0.00    +0.005 C 
ATOM     31  C   UNL     1      52.557  83.503  43.194  0.00  0.00    +0.077 C 
ATOM     32  C   UNL     1      53.261  83.588  44.460  0.00  0.00    +0.341 C 
ATOM     33  O   UNL     1      54.488  83.431  44.702  0.00  0.00    -0.245 OA
ATOM     34  O   UNL     1      52.330  83.882  45.414  0.00  0.00    -0.441 OA
ATOM     35  C   UNL     1      51.059  84.065  44.775  0.00  0.00    +0.231 C 
ENDBRANCH  26  30
ENDBRANCH   9  10
ENDBRANCH   6   9
BRANCH   3  36
ATOM     36  O   UNL     1      39.422  76.140  38.236  0.00  0.00    -0.328 OA
BRANCH  36  37
ATOM     37  C   UNL     1      38.622  75.678  37.236  0.00  0.00    +0.238 C 
ATOM     38  C   UNL     1      37.176  75.614  37.670  0.00  0.00    +0.097 C 
ATOM     39  C   UNL     1      36.868  74.183  38.132  0.00  0.00    +0.186 C 
ATOM     40  C   UNL     1      36.845  73.370  36.830  0.00  0.00    +0.175 C 
ATOM     41  C   UNL     1      38.162  73.703  36.124  0.00  0.00    +0.147 C 
ATOM     42  O   UNL     1      39.041  74.351  36.975  0.00  0.00    -0.330 OA
ATOM     43  C   UNL     1      38.796  72.377  35.756  0.00  0.00    +0.035 C 
ATOM     44  O   UNL     1      35.645  74.118  38.782  0.00  0.00    -0.220 OA
BRANCH  40  45
ATOM     45  O   UNL     1      35.833  73.865  36.045  0.00  0.00    -0.328 OA
BRANCH  45  46
ATOM     46  C   UNL     1      34.746  73.043  35.915  0.00  0.00    +0.239 C 
ATOM     47  C   UNL     1      34.403  72.910  34.446  0.00  0.00    +0.108 C 
ATOM     48  C   UNL     1      33.533  71.647  34.318  0.00  0.00    +0.203 C 
ATOM     49  C   UNL     1      34.477  70.487  34.494  0.00  0.00    +0.185 C 
ATOM     50  C   UNL     1      35.434  70.861  35.601  0.00  0.00    +0.149 C 
ATOM     51  O   UNL     1      34.899  71.790  36.488  0.00  0.00    -0.330 OA
ATOM     52  C   UNL     1      35.868  69.670  36.430  0.00  0.00    +0.035 C 
BRANCH  49  53
ATOM     53  O   UNL     1      33.906  69.299  34.772  0.00  0.00    -0.325 OA
BRANCH  53  54
ATOM     54  C   UNL     1      32.926  68.849  33.949  0.00  0.00    +0.270 C 
ATOM     55  C   UNL     1      32.088  67.833  34.736  0.00  0.00    +0.241 C 
ATOM     56  C   UNL     1      32.967  66.735  35.218  0.00  0.00    +0.220 C 
ATOM     57  C   UNL     1      34.309  66.672  34.580  0.00  0.00    +0.214 C 
ATOM     58  C   UNL     1      34.367  67.195  33.188  0.00  0.00    +0.183 C 
ATOM     59  O   UNL     1      33.463  68.168  32.881  0.00  0.00    -0.326 OA
ATOM     60  O   UNL     1      34.680  65.307  34.526  0.00  0.00    -0.218 OA
ATOM     61  O   UNL     1      32.301  65.520  35.059  0.00  0.00    -0.217 OA
ATOM     62  O   UNL     1      31.045  67.372  33.961  0.00  0.00    -0.215 OA
BRANCH  58  63
ATOM     63  C   UNL     1      34.217  66.061  32.189  0.00  0.00    +0.214 C 
ATOM     64  O   UNL     1      35.349  66.025  31.388  0.00  0.00    -0.218 OA
ENDBRANCH  58  63
ENDBRANCH  53  54
ENDBRANCH  49  53
BRANCH  48  65
ATOM     65  O   UNL     1      32.572  71.730  35.341  0.00  0.00    -0.449 OA
BRANCH  65  66
ATOM     66  C   UNL     1      31.273  72.049  35.055  0.00  0.00    +0.318 C 
ATOM     67  O   UNL     1      31.036  72.868  34.133  0.00  0.00    -0.250 OA
ATOM     68  C   UNL     1      30.127  71.442  35.818  0.00  0.00    +0.121 C 
ENDBRANCH  65  66
ENDBRANCH  48  65
ENDBRANCH  45  46
ENDBRANCH  40  45
ENDBRANCH  36  37
ENDBRANCH   3  36
TORSDOF 12
