REMARK  Name = Lanatoside_b
REMARK  12 active torsions:
REMARK  status: ('A' for Active; 'I' for Inactive)
REMARK    1  A    between atoms: C_3  and  O_37
REMARK    2  A    between atoms: C_6  and  O_8
REMARK    3  A    between atoms: O_8  and  C_9
REMARK    4  A    between atoms: C_25  and  C_26
REMARK    5  A    between atoms: O_37  and  C_38
REMARK    6  A    between atoms: C_41  and  O_45
REMARK    7  A    between atoms: O_45  and  C_46
REMARK    8  A    between atoms: C_48  and  O_65
REMARK    9  A    between atoms: C_49  and  O_53
REMARK   10  A    between atoms: O_53  and  C_54
REMARK   11  A    between atoms: C_58  and  C_60
REMARK   12  A    between atoms: O_65  and  C_66
REMARK                            x       y       z     vdW  Elec       q    Type
REMARK                         _______ _______ _______ _____ _____    ______ ____
ROOT
ATOM      1  C   UNL     1      39.247  78.345  37.372  0.00  0.00    +0.035 C 
ATOM      2  C   UNL     1      39.847  77.010  37.079  0.00  0.00    +0.147 C 
ATOM      3  C   UNL     1      38.761  75.953  37.176  0.00  0.00    +0.175 C 
ATOM      4  C   UNL     1      38.471  75.555  38.580  0.00  0.00    +0.186 C 
ATOM      5  C   UNL     1      39.733  75.451  39.390  0.00  0.00    +0.097 C 
ATOM      6  C   UNL     1      40.561  76.694  39.184  0.00  0.00    +0.238 C 
ATOM      7  O   UNL     1      40.957  76.685  37.821  0.00  0.00    -0.330 OA
ATOM      8  O   UNL     1      37.865  74.281  38.541  0.00  0.00    -0.220 OA
ENDROOT
BRANCH   6   9
ATOM      9  O   UNL     1      41.658  76.637  40.011  0.00  0.00    -0.333 OA
BRANCH   9  10
ATOM     10  C   UNL     1      42.517  77.717  39.965  0.00  0.00    +0.118 C 
ATOM     11  C   UNL     1      43.357  77.832  41.192  0.00  0.00    +0.030 C 
ATOM     12  C   UNL     1      44.800  77.473  40.986  0.00  0.00    +0.002 C 
ATOM     13  C   UNL     1      45.483  78.406  39.991  0.00  0.00    +0.000 C 
ATOM     14  C   UNL     1      44.493  78.758  38.924  0.00  0.00    +0.002 C 
ATOM     15  C   UNL     1      43.370  77.768  38.754  0.00  0.00    +0.030 C 
ATOM     16  C   UNL     1      44.016  80.195  39.045  0.00  0.00    +0.000 C 
ATOM     17  C   UNL     1      45.283  81.008  38.726  0.00  0.00    +0.002 C 
ATOM     18  C   UNL     1      46.154  80.860  39.976  0.00  0.00    +0.028 C 
ATOM     19  C   UNL     1      45.906  79.622  40.749  0.00  0.00    +0.002 C 
ATOM     20  C   UNL     1      47.097  79.404  41.643  0.00  0.00    +0.000 C 
ATOM     21  C   UNL     1      47.523  80.811  42.120  0.00  0.00    +0.003 C 
ATOM     22  C   UNL     1      48.346  81.370  40.986  0.00  0.00    +0.032 C 
ATOM     23  C   UNL     1      47.606  81.143  39.663  0.00  0.00    +0.129 C 
ATOM     24  C   UNL     1      47.678  82.452  38.911  0.00  0.00    +0.064 C 
ATOM     25  C   UNL     1      47.805  83.509  40.019  0.00  0.00    +0.158 C 
ATOM     26  C   UNL     1      48.654  82.819  41.056  0.00  0.00    +0.055 C 
ATOM     27  O   UNL     1      46.574  83.922  40.444  0.00  0.00    -0.223 OA
ATOM     28  O   UNL     1      48.213  80.174  38.917  0.00  0.00    -0.226 OA
ATOM     29  C   UNL     1      49.628  80.519  40.963  0.00  0.00    +0.003 C 
ATOM     30  C   UNL     1      46.573  77.613  39.348  0.00  0.00    +0.000 C 
BRANCH  26  31
ATOM     31  C   UNL     1      48.718  83.455  42.362  0.00  0.00    +0.008 C 
ATOM     32  C   UNL     1      49.736  83.616  43.204  0.00  0.00    +0.077 C 
ATOM     33  C   UNL     1      49.304  84.328  44.398  0.00  0.00    +0.341 C 
ATOM     34  O   UNL     1      50.067  84.621  45.378  0.00  0.00    -0.245 OA
ATOM     35  O   UNL     1      47.954  84.607  44.257  0.00  0.00    -0.441 OA
ATOM     36  C   UNL     1      47.517  84.026  43.074  0.00  0.00    +0.231 C 
ENDBRANCH  26  31
ENDBRANCH   9  10
ENDBRANCH   6   9
BRANCH   3  37
ATOM     37  O   UNL     1      39.167  74.894  36.396  0.00  0.00    -0.328 OA
BRANCH  37  38
ATOM     38  C   UNL     1      38.150  74.220  35.763  0.00  0.00    +0.238 C 
ATOM     39  C   UNL     1      38.005  74.636  34.311  0.00  0.00    +0.097 C 
ATOM     40  C   UNL     1      37.001  73.820  33.579  0.00  0.00    +0.186 C 
ATOM     41  C   UNL     1      36.953  72.363  33.995  0.00  0.00    +0.175 C 
ATOM     42  C   UNL     1      37.297  72.132  35.424  0.00  0.00    +0.147 C 
ATOM     43  O   UNL     1      38.438  72.862  35.752  0.00  0.00    -0.330 OA
ATOM     44  C   UNL     1      37.592  70.680  35.730  0.00  0.00    +0.035 C 
ATOM     45  O   UNL     1      37.312  73.846  32.205  0.00  0.00    -0.220 OA
BRANCH  41  46
ATOM     46  O   UNL     1      37.875  71.699  33.190  0.00  0.00    -0.328 OA
BRANCH  46  47
ATOM     47  C   UNL     1      37.260  71.168  32.060  0.00  0.00    +0.239 C 
ATOM     48  C   UNL     1      38.151  71.453  30.871  0.00  0.00    +0.108 C 
ATOM     49  C   UNL     1      37.283  72.018  29.790  0.00  0.00    +0.203 C 
ATOM     50  C   UNL     1      36.062  71.098  29.673  0.00  0.00    +0.185 C 
ATOM     51  C   UNL     1      35.252  71.347  30.928  0.00  0.00    +0.149 C 
ATOM     52  O   UNL     1      36.044  71.852  31.936  0.00  0.00    -0.330 OA
ATOM     53  C   UNL     1      34.491  70.114  31.385  0.00  0.00    +0.035 C 
BRANCH  50  54
ATOM     54  O   UNL     1      36.398  69.769  29.654  0.00  0.00    -0.325 OA
BRANCH  54  55
ATOM     55  C   UNL     1      36.066  69.117  28.479  0.00  0.00    +0.270 C 
ATOM     56  C   UNL     1      36.082  67.617  28.573  0.00  0.00    +0.241 C 
ATOM     57  C   UNL     1      36.504  67.086  27.200  0.00  0.00    +0.220 C 
ATOM     58  C   UNL     1      35.961  68.017  26.108  0.00  0.00    +0.214 C 
ATOM     59  C   UNL     1      36.489  69.414  26.284  0.00  0.00    +0.183 C 
ATOM     60  O   UNL     1      37.070  69.476  27.547  0.00  0.00    -0.326 OA
ATOM     61  O   UNL     1      36.310  67.465  24.891  0.00  0.00    -0.218 OA
ATOM     62  O   UNL     1      35.868  65.860  27.029  0.00  0.00    -0.217 OA
ATOM     63  O   UNL     1      34.840  67.089  28.934  0.00  0.00    -0.215 OA
BRANCH  59  64
ATOM     64  C   UNL     1      37.505  69.785  25.233  0.00  0.00    +0.214 C 
ATOM     65  O   UNL     1      37.450  71.108  24.877  0.00  0.00    -0.218 OA
ENDBRANCH  59  64
ENDBRANCH  54  55
ENDBRANCH  50  54
BRANCH  49  66
ATOM     66  O   UNL     1      37.934  72.168  28.559  0.00  0.00    -0.449 OA
BRANCH  66  67
ATOM     67  C   UNL     1      39.292  72.347  28.485  0.00  0.00    +0.318 C 
ATOM     68  O   UNL     1      39.830  73.213  29.214  0.00  0.00    -0.250 OA
ATOM     69  C   UNL     1      40.171  71.561  27.575  0.00  0.00    +0.121 C 
ENDBRANCH  66  67
ENDBRANCH  49  66
ENDBRANCH  46  47
ENDBRANCH  41  46
ENDBRANCH  37  38
ENDBRANCH   3  37
TORSDOF 12
