REMARK  Name = Lanreotide_acetate
REMARK  17 active torsions:
REMARK  status: ('A' for Active; 'I' for Inactive)
REMARK    1  A    between atoms: C_2  and  C_4
REMARK    2  A    between atoms: C_8  and  C_68
REMARK    3  A    between atoms: C_13  and  N_52
REMARK    4  A    between atoms: C_17  and  C_44
REMARK    5  A    between atoms: C_21  and  C_34
REMARK    6  A    between atoms: C_25  and  C_29
REMARK    7  A    between atoms: C_29  and  C_30
REMARK    8  A    between atoms: C_30  and  C_31
REMARK    9  A    between atoms: C_31  and  C_32
REMARK   10  A    between atoms: C_34  and  C_35
REMARK   11  A    between atoms: C_44  and  C_45
REMARK   12  A    between atoms: C_53  and  C_55
REMARK   13  A    between atoms: C_55  and  C_56
REMARK   14  A    between atoms: C_56  and  C_57
REMARK   15  A    between atoms: N_70  and  C_71
REMARK   16  A    between atoms: C_71  and  C_72
REMARK   17  A    between atoms: C_71  and  C_75
REMARK                            x       y       z     vdW  Elec       q    Type
REMARK                         _______ _______ _______ _____ _____    ______ ____
ROOT
ATOM      1  C   UNL     1      44.825  76.710  43.188  0.00  0.00    +0.173 C 
ATOM      2  C   UNL     1      43.566  76.024  42.842  0.00  0.00    +0.262 C 
ATOM      3  O   UNL     1      42.507  76.748  42.998  0.00  0.00    -0.271 OA
ATOM      4  N   UNL     1      43.347  74.727  42.376  0.00  0.00    -0.195 NA
ATOM      5  C   UNL     1      43.589  73.449  42.994  0.00  0.00    +0.184 C 
ATOM      6  C   UNL     1      42.441  72.501  42.612  0.00  0.00    +0.100 C 
ATOM      7  S   UNL     1      41.226  73.430  41.665  0.00  0.00    -0.080 S 
ATOM      8  S   UNL     1      40.831  72.630  39.761  0.00  0.00    -0.080 S 
ATOM      9  C   UNL     1      41.099  73.815  38.414  0.00  0.00    +0.100 C 
ATOM     10  C   UNL     1      40.223  75.028  38.536  0.00  0.00    +0.184 C 
ATOM     11  C   UNL     1      40.820  75.922  39.568  0.00  0.00    +0.263 C 
ATOM     12  O   UNL     1      40.184  75.872  40.694  0.00  0.00    -0.271 OA
ATOM     13  N   UNL     1      41.921  76.759  39.467  0.00  0.00    -0.196 NA
ATOM     14  C   UNL     1      42.165  77.906  38.586  0.00  0.00    +0.177 C 
ATOM     15  C   UNL     1      41.990  79.139  39.391  0.00  0.00    +0.262 C 
ATOM     16  O   UNL     1      40.900  79.751  39.284  0.00  0.00    -0.271 OA
ATOM     17  N   UNL     1      42.961  79.652  40.263  0.00  0.00    -0.196 NA
ATOM     18  C   UNL     1      44.356  79.860  39.937  0.00  0.00    +0.177 C 
ATOM     19  C   UNL     1      45.168  80.033  41.153  0.00  0.00    +0.262 C 
ATOM     20  O   UNL     1      44.898  81.071  41.843  0.00  0.00    -0.271 OA
ATOM     21  N   UNL     1      46.193  79.189  41.627  0.00  0.00    -0.196 NA
ATOM     22  C   UNL     1      46.875  78.184  40.876  0.00  0.00    +0.173 C 
ATOM     23  C   UNL     1      46.359  76.790  41.131  0.00  0.00    +0.262 C 
ATOM     24  O   UNL     1      46.293  76.028  40.130  0.00  0.00    -0.271 OA
ATOM     25  N   UNL     1      45.957  76.293  42.379  0.00  0.00    -0.196 NA
ENDROOT
BRANCH   1  27
ATOM     26  C   UNL     1      45.605  75.394  45.204  0.00  0.00    +0.002 C 
ATOM     27  C   UNL     1      45.160  76.706  44.659  0.00  0.00    +0.029 C 
ATOM     28  C   UNL     1      46.320  77.680  44.919  0.00  0.00    +0.002 C 
ENDBRANCH   1  27
BRANCH  10  29
ATOM     29  N   UNL     1      38.878  74.606  38.911  0.00  0.00    -0.196 NA
ATOM     30  C   UNL     1      37.845  74.585  37.943  0.00  0.00    +0.260 C 
ATOM     31  O   UNL     1      36.656  74.573  38.332  0.00  0.00    -0.272 OA
BRANCH  30  32
ATOM     32  C   UNL     1      38.128  74.574  36.492  0.00  0.00    +0.174 C 
ATOM     33  N   UNL     1      38.578  73.250  36.058  0.00  0.00    -0.123 NA
BRANCH  32  34
ATOM     34  C   UNL     1      36.785  74.869  35.803  0.00  0.00    +0.055 C 
BRANCH  34  35
ATOM     35  C   UNL     1      36.825  74.637  34.358  0.00  0.00    -0.020 A 
ATOM     36  C   UNL     1      35.699  74.861  33.606  0.00  0.00    -0.004 A 
ATOM     37  C   UNL     1      35.665  74.686  32.218  0.00  0.00    -0.000 A 
ATOM     38  C   UNL     1      34.503  74.939  31.528  0.00  0.00    -0.000 A 
ATOM     39  C   UNL     1      34.499  74.769  30.162  0.00  0.00    -0.000 A 
ATOM     40  C   UNL     1      35.645  74.350  29.492  0.00  0.00    -0.000 A 
ATOM     41  C   UNL     1      36.785  74.109  30.230  0.00  0.00    -0.000 A 
ATOM     42  C   UNL     1      36.842  74.264  31.601  0.00  0.00    -0.000 A 
ATOM     43  C   UNL     1      37.985  74.032  32.341  0.00  0.00    -0.000 A 
ATOM     44  C   UNL     1      37.960  74.220  33.695  0.00  0.00    -0.004 A 
ENDBRANCH  34  35
ENDBRANCH  32  34
ENDBRANCH  30  32
ENDBRANCH  10  29
BRANCH   5  45
ATOM     45  C   UNL     1      44.837  72.795  42.469  0.00  0.00    +0.263 C 
ATOM     46  O   UNL     1      45.848  73.482  42.261  0.00  0.00    -0.271 OA
ATOM     47  N   UNL     1      44.878  71.405  42.210  0.00  0.00    -0.194 NA
BRANCH  47  48
ATOM     48  C   UNL     1      45.922  70.529  42.681  0.00  0.00    +0.204 C 
BRANCH  48  49
ATOM     49  C   UNL     1      46.636  69.980  41.439  0.00  0.00    +0.181 C 
ATOM     50  C   UNL     1      47.050  71.091  40.529  0.00  0.00    +0.038 C 
ATOM     51  O   UNL     1      47.775  69.286  41.881  0.00  0.00    -0.221 OA
ENDBRANCH  48  49
BRANCH  48  52
ATOM     52  C   UNL     1      45.364  69.337  43.388  0.00  0.00    +0.283 C 
ATOM     53  O   UNL     1      44.282  68.803  43.016  0.00  0.00    -0.270 OA
ATOM     54  N   UNL     1      46.090  68.833  44.483  0.00  0.00    -0.086 NA
ENDBRANCH  48  52
ENDBRANCH  47  48
ENDBRANCH   5  45
BRANCH  18  55
ATOM     55  C   UNL     1      44.415  81.198  39.195  0.00  0.00    +0.059 C 
BRANCH  55  56
ATOM     56  C   UNL     1      45.802  81.433  38.768  0.00  0.00    +0.001 A 
ATOM     57  C   UNL     1      46.237  82.465  37.927  0.00  0.00    +0.095 A 
ATOM     58  N   UNL     1      47.567  82.360  37.730  0.00  0.00    -0.244 NA
ATOM     59  C   UNL     1      48.014  81.288  38.419  0.00  0.00    +0.081 A 
ATOM     60  C   UNL     1      49.261  80.719  38.576  0.00  0.00    +0.019 A 
ATOM     61  C   UNL     1      49.427  79.597  39.358  0.00  0.00    +0.002 A 
ATOM     62  C   UNL     1      48.369  78.998  40.012  0.00  0.00    +0.000 A 
ATOM     63  C   UNL     1      47.135  79.594  39.834  0.00  0.00    +0.001 A 
ATOM     64  C   UNL     1      46.929  80.712  39.062  0.00  0.00    +0.015 A 
ENDBRANCH  55  56
ENDBRANCH  18  55
BRANCH  14  65
ATOM     65  C   UNL     1      41.424  77.847  37.319  0.00  0.00    +0.057 C 
BRANCH  65  66
ATOM     66  C   UNL     1      39.968  78.033  37.527  0.00  0.00    -0.020 A 
ATOM     67  C   UNL     1      39.121  78.201  36.418  0.00  0.00    -0.001 A 
ATOM     68  C   UNL     1      37.770  78.339  36.487  0.00  0.00    +0.042 A 
ATOM     69  C   UNL     1      37.182  78.312  37.736  0.00  0.00    +0.196 A 
ATOM     70  C   UNL     1      37.969  78.149  38.850  0.00  0.00    +0.042 A 
ATOM     71  C   UNL     1      39.361  78.009  38.759  0.00  0.00    -0.001 A 
ATOM     72  O   UNL     1      35.807  78.451  37.798  0.00  0.00    -0.287 OA
ENDBRANCH  65  66
ENDBRANCH  14  65
BRANCH  22  73
ATOM     73  C   UNL     1      48.352  78.131  41.046  0.00  0.00    +0.031 C 
BRANCH  73  74
ATOM     74  C   UNL     1      49.064  79.341  41.480  0.00  0.00    +0.004 C 
BRANCH  74  75
ATOM     75  C   UNL     1      48.345  80.651  41.311  0.00  0.00    +0.021 C 
BRANCH  75  76
ATOM     76  C   UNL     1      47.782  81.160  42.623  0.00  0.00    +0.109 C 
ATOM     77  N   UNL     1      47.503  82.600  42.495  0.00  0.00    -0.131 NA
ENDBRANCH  75  76
ENDBRANCH  74  75
ENDBRANCH  73  74
ENDBRANCH  22  73
TORSDOF 17
