REMARK  Name = Lapatinib
REMARK  10 active torsions:
REMARK  status: ('A' for Active; 'I' for Inactive)
REMARK    1  A    between atoms: S_2  and  C_5
REMARK    2  A    between atoms: C_5  and  C_6
REMARK    3  A    between atoms: C_6  and  N_7
REMARK    4  A    between atoms: N_7  and  C_8
REMARK    5  A    between atoms: C_8  and  C_9
REMARK    6  A    between atoms: C_12  and  C_14
REMARK    7  A    between atoms: N_24  and  C_25
REMARK    8  A    between atoms: C_28  and  O_31
REMARK    9  A    between atoms: O_31  and  C_32
REMARK   10  A    between atoms: C_32  and  C_33
REMARK                            x       y       z     vdW  Elec       q    Type
REMARK                         _______ _______ _______ _____ _____    ______ ____
ROOT
ATOM      1  C   UNL     1      44.449  78.497  39.897  0.00  0.00    +0.035 A 
ATOM      2  C   UNL     1      45.459  79.270  40.485  0.00  0.00    +0.007 A 
ATOM      3  C   UNL     1      45.822  80.511  40.002  0.00  0.00    +0.051 A 
ATOM      4  C   UNL     1      45.149  81.006  38.884  0.00  0.00    +0.086 A 
ATOM      5  C   UNL     1      44.151  80.269  38.285  0.00  0.00    +0.019 A 
ATOM      6  C   UNL     1      43.823  79.032  38.803  0.00  0.00    +0.005 A 
ATOM      7  N   UNL     1      45.489  82.206  38.403  0.00  0.00    -0.224 NA
ATOM      8  C   UNL     1      46.472  82.928  38.994  0.00  0.00    +0.200 A 
ATOM      9  N   UNL     1      47.106  82.432  40.069  0.00  0.00    -0.207 NA
ATOM     10  C   UNL     1      46.819  81.228  40.612  0.00  0.00    +0.155 A 
ATOM     11  N   UNL     1      47.512  80.713  41.723  0.00  0.00    -0.194 NA
ENDROOT
BRANCH  11  12
ATOM     12  C   UNL     1      48.387  81.612  42.442  0.00  0.00    +0.073 A 
ATOM     13  C   UNL     1      47.902  82.883  42.781  0.00  0.00    +0.031 A 
ATOM     14  C   UNL     1      48.699  83.780  43.453  0.00  0.00    +0.093 A 
ATOM     15  C   UNL     1      49.986  83.436  43.800  0.00  0.00    +0.150 A 
ATOM     16  C   UNL     1      50.484  82.204  43.482  0.00  0.00    +0.039 A 
ATOM     17  C   UNL     1      49.661  81.320  42.806  0.00  0.00    +0.020 A 
ATOM     18 CL   UNL     1      48.055  85.380  43.866  0.00  0.00    -0.079 Cl
BRANCH  15  19
ATOM     19  O   UNL     1      50.797  84.327  44.477  0.00  0.00    -0.470 OA
BRANCH  19  20
ATOM     20  C   UNL     1      50.722  84.516  45.880  0.00  0.00    +0.232 C 
BRANCH  20  21
ATOM     21  C   UNL     1      51.943  85.241  46.300  0.00  0.00    +0.023 A 
ATOM     22  C   UNL     1      52.490  86.253  45.528  0.00  0.00    +0.029 A 
ATOM     23  C   UNL     1      53.639  86.944  45.906  0.00  0.00    +0.140 A 
ATOM     24  C   UNL     1      54.250  86.598  47.099  0.00  0.00    +0.030 A 
ATOM     25  C   UNL     1      53.729  85.599  47.882  0.00  0.00    +0.002 A 
ATOM     26  C   UNL     1      52.593  84.936  47.482  0.00  0.00    -0.001 A 
ATOM     27  F   UNL     1      54.158  87.935  45.132  0.00  0.00    -0.204 F 
ENDBRANCH  20  21
ENDBRANCH  19  20
ENDBRANCH  15  19
ENDBRANCH  11  12
BRANCH   1  31
ATOM     28  C   UNL     1      44.250  75.301  41.527  0.00  0.00    +0.140 A 
ATOM     29  C   UNL     1      42.989  75.318  40.948  0.00  0.00    +0.038 A 
ATOM     30  C   UNL     1      42.911  76.520  40.266  0.00  0.00    +0.040 A 
ATOM     31  C   UNL     1      44.102  77.186  40.446  0.00  0.00    +0.145 A 
ATOM     32  O   UNL     1      44.837  76.407  41.196  0.00  0.00    -0.456 OA
BRANCH  28  33
ATOM     33  C   UNL     1      44.800  74.182  42.377  0.00  0.00    +0.153 C 
BRANCH  33  34
ATOM     34  N   UNL     1      45.769  73.407  41.667  0.00  0.00    -0.208 NA
BRANCH  34  35
ATOM     35  C   UNL     1      47.023  73.390  42.408  0.00  0.00    +0.114 C 
BRANCH  35  36
ATOM     36  C   UNL     1      47.339  71.902  42.616  0.00  0.00    +0.170 C 
BRANCH  36  38
ATOM     37  C   UNL     1      48.947  70.075  44.153  0.00  0.00    +0.176 C 
ATOM     38  S   UNL     1      48.754  71.754  43.646  0.00  0.00    -0.007 S 
ATOM     39  O   UNL     1      48.591  72.641  44.850  0.00  0.00    -0.173 OA
ATOM     40  O   UNL     1      49.955  72.183  42.834  0.00  0.00    -0.173 OA
ENDBRANCH  36  38
ENDBRANCH  35  36
ENDBRANCH  34  35
ENDBRANCH  33  34
ENDBRANCH  28  33
ENDBRANCH   1  31
TORSDOF 10
