REMARK  Name = Larotrectinib
REMARK  2 active torsions:
REMARK  status: ('A' for Active; 'I' for Inactive)
REMARK    1  A    between atoms: C_3  and  C_24
REMARK    2  A    between atoms: C_9  and  N_15
REMARK                            x       y       z     vdW  Elec       q    Type
REMARK                         _______ _______ _______ _____ _____    ______ ____
ROOT
ATOM      1  C   UNL     1      50.704  79.459  42.936  0.00  0.00    +0.024 C 
ATOM      2  C   UNL     1      50.834  80.898  43.388  0.00  0.00    +0.026 C 
ATOM      3  C   UNL     1      49.462  81.416  43.081  0.00  0.00    +0.099 C 
ATOM      4  N   UNL     1      49.114  80.809  41.842  0.00  0.00    -0.291 N 
ATOM      5  C   UNL     1      50.071  79.728  41.560  0.00  0.00    +0.092 C 
ATOM      6  C   UNL     1      48.054  81.074  40.936  0.00  0.00    +0.135 A 
ATOM      7  N   UNL     1      47.102  80.184  40.591  0.00  0.00    -0.210 NA
ATOM      8  C   UNL     1      46.118  80.501  39.730  0.00  0.00    +0.182 A 
ATOM      9  C   UNL     1      45.068  79.751  39.256  0.00  0.00    +0.131 A 
ATOM     10  C   UNL     1      44.310  80.533  38.374  0.00  0.00    +0.140 A 
ATOM     11  N   UNL     1      44.931  81.720  38.353  0.00  0.00    -0.161 NA
ATOM     12  N   UNL     1      46.004  81.710  39.154  0.00  0.00    -0.209 N 
ATOM     13  C   UNL     1      46.925  82.638  39.461  0.00  0.00    +0.105 A 
ATOM     14  C   UNL     1      47.944  82.315  40.350  0.00  0.00    +0.055 A 
ENDROOT
BRANCH   9  15
ATOM     15  N   UNL     1      44.759  78.403  39.574  0.00  0.00    -0.157 NA
ATOM     16  C   UNL     1      44.577  78.003  40.927  0.00  0.00    +0.328 C 
ATOM     17  O   UNL     1      45.129  78.730  41.799  0.00  0.00    -0.250 OA
ATOM     18  N   UNL     1      43.815  76.848  41.285  0.00  0.00    -0.260 N 
ATOM     19  C   UNL     1      43.859  76.230  42.593  0.00  0.00    +0.098 C 
ATOM     20  C   UNL     1      43.304  74.833  42.417  0.00  0.00    +0.056 C 
ATOM     21  C   UNL     1      43.067  74.671  40.944  0.00  0.00    +0.173 C 
ATOM     22  C   UNL     1      42.889  76.085  40.477  0.00  0.00    +0.128 C 
ATOM     23  O   UNL     1      41.931  73.915  40.667  0.00  0.00    -0.221 OA
ENDBRANCH   9  15
BRANCH   3  24
ATOM     24  C   UNL     1      49.353  82.865  43.123  0.00  0.00    +0.025 A 
ATOM     25  C   UNL     1      50.463  83.659  42.981  0.00  0.00    +0.138 A 
ATOM     26  C   UNL     1      50.387  85.045  43.017  0.00  0.00    +0.032 A 
ATOM     27  C   UNL     1      49.171  85.642  43.200  0.00  0.00    +0.032 A 
ATOM     28  C   UNL     1      48.048  84.886  43.345  0.00  0.00    +0.140 A 
ATOM     29  C   UNL     1      48.145  83.485  43.305  0.00  0.00    +0.029 A 
ATOM     30  F   UNL     1      46.859  85.502  43.524  0.00  0.00    -0.204 F 
ATOM     31  F   UNL     1      51.658  83.099  42.802  0.00  0.00    -0.204 F 
ENDBRANCH   3  24
TORSDOF 2
