REMARK  Name = Lasmiditan
REMARK  4 active torsions:
REMARK  status: ('A' for Active; 'I' for Inactive)
REMARK    1  A    between atoms: C_5  and  C_8
REMARK    2  A    between atoms: C_8  and  C_10
REMARK    3  A    between atoms: C_12  and  N_16
REMARK    4  A    between atoms: C_17  and  C_19
REMARK                            x       y       z     vdW  Elec       q    Type
REMARK                         _______ _______ _______ _____ _____    ______ ____
ROOT
ATOM      1  C   UNL     1      42.265  77.399  39.243  0.00  0.00    +0.117 A 
ATOM      2  N   UNL     1      43.498  77.912  39.388  0.00  0.00    -0.226 NA
ATOM      3  C   UNL     1      43.938  79.017  38.765  0.00  0.00    +0.155 A 
ATOM      4  C   UNL     1      43.093  79.687  37.919  0.00  0.00    +0.036 A 
ATOM      5  C   UNL     1      41.811  79.216  37.723  0.00  0.00    +0.005 A 
ATOM      6  C   UNL     1      41.406  78.076  38.386  0.00  0.00    +0.022 A 
ENDROOT
BRANCH   3   7
ATOM      7  N   UNL     1      45.281  79.490  38.985  0.00  0.00    -0.156 NA
ATOM      8  C   UNL     1      45.577  80.862  39.055  0.00  0.00    +0.275 C 
ATOM      9  O   UNL     1      44.712  81.647  38.507  0.00  0.00    -0.268 OA
BRANCH   8  10
ATOM     10  C   UNL     1      46.750  81.381  39.687  0.00  0.00    +0.110 A 
ATOM     11  C   UNL     1      47.198  80.688  40.822  0.00  0.00    +0.149 A 
ATOM     12  C   UNL     1      48.312  81.072  41.531  0.00  0.00    +0.060 A 
ATOM     13  C   UNL     1      49.025  82.180  41.119  0.00  0.00    +0.145 A 
ATOM     14  C   UNL     1      48.615  82.878  40.017  0.00  0.00    +0.060 A 
ATOM     15  C   UNL     1      47.475  82.461  39.315  0.00  0.00    +0.149 A 
ATOM     16  F   UNL     1      47.106  83.180  38.231  0.00  0.00    -0.204 F 
ATOM     17  F   UNL     1      50.130  82.585  41.797  0.00  0.00    -0.204 F 
ATOM     18  F   UNL     1      46.527  79.583  41.272  0.00  0.00    -0.204 F 
ENDBRANCH   8  10
ENDBRANCH   3   7
BRANCH   1  19
ATOM     19  C   UNL     1      41.827  76.196  39.938  0.00  0.00    +0.190 C 
ATOM     20  O   UNL     1      42.112  76.056  41.151  0.00  0.00    -0.290 OA
BRANCH  19  25
ATOM     21  C   UNL     1      38.513  72.608  37.574  0.00  0.00    +0.090 C 
ATOM     22  N   UNL     1      39.493  73.493  38.143  0.00  0.00    -0.271 NA
ATOM     23  C   UNL     1      39.445  74.760  37.449  0.00  0.00    +0.073 C 
ATOM     24  C   UNL     1      40.063  75.827  38.311  0.00  0.00    +0.025 C 
ATOM     25  C   UNL     1      41.064  75.165  39.231  0.00  0.00    +0.066 C 
ATOM     26  C   UNL     1      40.336  74.332  40.269  0.00  0.00    +0.025 C 
ATOM     27  C   UNL     1      39.197  73.631  39.561  0.00  0.00    +0.073 C 
ENDBRANCH  19  25
ENDBRANCH   1  19
TORSDOF 4
