REMARK  Name = Lasofoxifene
REMARK  6 active torsions:
REMARK  status: ('A' for Active; 'I' for Inactive)
REMARK    1  A    between atoms: N_4  and  C_6
REMARK    2  A    between atoms: C_6  and  C_7
REMARK    3  A    between atoms: C_7  and  O_8
REMARK    4  A    between atoms: O_8  and  C_9
REMARK    5  A    between atoms: C_12  and  C_15
REMARK    6  A    between atoms: C_16  and  C_26
REMARK                            x       y       z     vdW  Elec       q    Type
REMARK                         _______ _______ _______ _____ _____    ______ ____
ROOT
ATOM      1  C   UNL     1      47.024  81.704  41.833  0.00  0.00    +0.048 C 
ATOM      2  C   UNL     1      48.443  82.137  41.619  0.00  0.00    +0.031 C 
ATOM      3  C   UNL     1      49.126  81.221  40.657  0.00  0.00    +0.010 C 
ATOM      4  C   UNL     1      48.503  81.392  39.302  0.00  0.00    +0.027 C 
ATOM      5  C   UNL     1      47.044  81.627  39.371  0.00  0.00    -0.023 A 
ATOM      6  C   UNL     1      46.324  81.778  40.513  0.00  0.00    -0.022 A 
ATOM      7  C   UNL     1      44.951  81.996  40.524  0.00  0.00    -0.001 A 
ATOM      8  C   UNL     1      44.316  82.058  39.309  0.00  0.00    +0.042 A 
ATOM      9  C   UNL     1      45.021  81.907  38.124  0.00  0.00    +0.195 A 
ATOM     10  C   UNL     1      46.379  81.693  38.154  0.00  0.00    +0.037 A 
ATOM     11  O   UNL     1      44.341  81.975  36.893  0.00  0.00    -0.287 OA
ENDROOT
BRANCH   1  15
ATOM     12  C   UNL     1      46.430  77.670  43.174  0.00  0.00    +0.139 A 
ATOM     13  C   UNL     1      46.704  78.657  44.083  0.00  0.00    +0.037 A 
ATOM     14  C   UNL     1      46.895  79.947  43.646  0.00  0.00    -0.001 A 
ATOM     15  C   UNL     1      46.831  80.333  42.336  0.00  0.00    -0.018 A 
ATOM     16  C   UNL     1      46.550  79.310  41.416  0.00  0.00    -0.001 A 
ATOM     17  C   UNL     1      46.355  78.006  41.842  0.00  0.00    +0.037 A 
BRANCH  12  18
ATOM     18  O   UNL     1      46.229  76.336  43.587  0.00  0.00    -0.474 OA
BRANCH  18  19
ATOM     19  C   UNL     1      44.896  75.832  43.715  0.00  0.00    +0.223 C 
BRANCH  19  20
ATOM     20  C   UNL     1      44.899  74.414  43.259  0.00  0.00    +0.120 C 
BRANCH  20  24
ATOM     21  C   UNL     1      42.964  72.941  41.421  0.00  0.00    +0.019 C 
ATOM     22  C   UNL     1      43.488  71.775  42.235  0.00  0.00    +0.019 C 
ATOM     23  C   UNL     1      43.749  72.311  43.626  0.00  0.00    +0.072 C 
ATOM     24  N   UNL     1      43.680  73.719  43.466  0.00  0.00    -0.270 NA
ATOM     25  C   UNL     1      42.646  73.940  42.513  0.00  0.00    +0.072 C 
ENDBRANCH  20  24
ENDBRANCH  19  20
ENDBRANCH  18  19
ENDBRANCH  12  18
ENDBRANCH   1  15
BRANCH   2  26
ATOM     26  C   UNL     1      49.187  82.360  42.854  0.00  0.00    -0.022 A 
ATOM     27  C   UNL     1      48.787  83.327  43.744  0.00  0.00    -0.004 A 
ATOM     28  C   UNL     1      49.501  83.551  44.927  0.00  0.00    -0.000 A 
ATOM     29  C   UNL     1      50.613  82.787  45.190  0.00  0.00    -0.000 A 
ATOM     30  C   UNL     1      51.021  81.819  44.309  0.00  0.00    -0.000 A 
ATOM     31  C   UNL     1      50.296  81.625  43.154  0.00  0.00    -0.004 A 
ENDBRANCH   2  26
TORSDOF 6
