REMARK  Name = Latamoxef
REMARK  9 active torsions:
REMARK  status: ('A' for Active; 'I' for Inactive)
REMARK    1  A    between atoms: C_3  and  S_7
REMARK    2  A    between atoms: S_7  and  C_8
REMARK    3  A    between atoms: C_8  and  C_9
REMARK    4  A    between atoms: C_10  and  C_34
REMARK    5  A    between atoms: C_13  and  N_16
REMARK    6  A    between atoms: C_13  and  O_30
REMARK    7  A    between atoms: C_17  and  C_19
REMARK    8  A    between atoms: C_19  and  C_20
REMARK    9  A    between atoms: C_19  and  C_27
REMARK                            x       y       z     vdW  Elec       q    Type
REMARK                         _______ _______ _______ _____ _____    ______ ____
ROOT
ATOM      1  C   UNL     1      44.493  79.235  40.817  0.00  0.00    +0.017 C 
ATOM      2  C   UNL     1      45.058  80.076  39.942  0.00  0.00    +0.131 C 
ATOM      3  N   UNL     1      46.463  80.280  40.014  0.00  0.00    -0.223 N 
ATOM      4  C   UNL     1      47.245  79.238  40.673  0.00  0.00    +0.253 C 
ATOM      5  C   UNL     1      48.391  80.189  40.585  0.00  0.00    +0.285 C 
ATOM      6  C   UNL     1      47.599  81.070  39.740  0.00  0.00    +0.280 C 
ATOM      7  O   UNL     1      47.799  82.092  39.054  0.00  0.00    -0.270 OA
ATOM      8  O   UNL     1      46.639  79.127  41.924  0.00  0.00    -0.329 OA
ATOM      9  C   UNL     1      45.388  78.585  41.807  0.00  0.00    +0.169 C 
ENDROOT
BRANCH   5  10
ATOM     10  N   UNL     1      48.781  80.692  41.880  0.00  0.00    -0.169 NA
ATOM     11  C   UNL     1      50.086  81.183  42.195  0.00  0.00    +0.258 C 
ATOM     12  O   UNL     1      51.008  80.847  41.417  0.00  0.00    -0.272 OA
BRANCH  11  13
ATOM     13  C   UNL     1      50.365  82.037  43.358  0.00  0.00    +0.203 C 
BRANCH  13  14
ATOM     14  C   UNL     1      49.486  83.196  43.481  0.00  0.00    -0.003 A 
ATOM     15  C   UNL     1      48.103  83.110  43.537  0.00  0.00    +0.000 A 
ATOM     16  C   UNL     1      47.372  84.267  43.653  0.00  0.00    +0.042 A 
ATOM     17  C   UNL     1      47.971  85.523  43.717  0.00  0.00    +0.196 A 
ATOM     18  C   UNL     1      49.340  85.606  43.662  0.00  0.00    +0.042 A 
ATOM     19  C   UNL     1      50.057  84.449  43.546  0.00  0.00    +0.000 A 
ATOM     20  O   UNL     1      47.232  86.681  43.834  0.00  0.00    -0.287 OA
ENDBRANCH  13  14
BRANCH  13  21
ATOM     21  C   UNL     1      51.758  82.570  43.210  0.00  0.00    +0.377 C 
ATOM     22  O   UNL     1      52.144  83.056  42.132  0.00  0.00    -0.245 OA
ATOM     23  O   UNL     1      52.661  82.543  44.258  0.00  0.00    -0.245 OA
ENDBRANCH  13  21
ENDBRANCH  11  13
ENDBRANCH   5  10
BRANCH   2  24
ATOM     24  C   UNL     1      44.352  80.796  38.913  0.00  0.00    +0.401 C 
ATOM     25  O   UNL     1      44.802  81.941  38.560  0.00  0.00    -0.239 OA
ATOM     26  O   UNL     1      43.226  80.409  38.236  0.00  0.00    -0.239 OA
ENDBRANCH   2  24
BRANCH   5  27
ATOM     27  O   UNL     1      49.428  79.616  39.850  0.00  0.00    -0.327 OA
ATOM     28  C   UNL     1      49.370  79.976  38.514  0.00  0.00    +0.177 C 
ENDBRANCH   5  27
BRANCH   1  29
ATOM     29  C   UNL     1      43.050  78.961  40.822  0.00  0.00    +0.091 C 
BRANCH  29  30
ATOM     30  S   UNL     1      42.728  77.278  40.266  0.00  0.00    -0.070 S 
BRANCH  30  33
ATOM     31  C   UNL     1      40.963  74.781  39.329  0.00  0.00    +0.158 C 
ATOM     32  N   UNL     1      40.962  76.033  38.570  0.00  0.00    -0.206 N 
ATOM     33  C   UNL     1      41.651  77.163  38.870  0.00  0.00    +0.211 A 
ATOM     34  N   UNL     1      41.364  78.047  37.923  0.00  0.00    -0.101 NA
ATOM     35  N   UNL     1      40.536  77.496  37.075  0.00  0.00    -0.022 NA
ATOM     36  N   UNL     1      40.287  76.265  37.466  0.00  0.00    -0.042 NA
ENDBRANCH  30  33
ENDBRANCH  29  30
ENDBRANCH   1  29
TORSDOF 9
