REMARK  Name = Latanoprost
REMARK  14 active torsions:
REMARK  status: ('A' for Active; 'I' for Inactive)
REMARK    1  A    between atoms: C_2  and  O_4
REMARK    2  A    between atoms: O_4  and  C_5
REMARK    3  A    between atoms: C_5  and  C_7
REMARK    4  A    between atoms: C_7  and  C_8
REMARK    5  A    between atoms: C_8  and  C_9
REMARK    6  A    between atoms: C_9  and  C_10
REMARK    7  A    between atoms: C_11  and  C_12
REMARK    8  A    between atoms: C_12  and  C_13
REMARK    9  A    between atoms: C_17  and  C_18
REMARK   10  A    between atoms: C_18  and  C_19
REMARK   11  A    between atoms: C_19  and  C_20
REMARK   12  A    between atoms: C_20  and  C_21
REMARK   13  A    between atoms: C_21  and  C_22
REMARK   14  A    between atoms: C_22  and  C_23
REMARK                            x       y       z     vdW  Elec       q    Type
REMARK                         _______ _______ _______ _____ _____    ______ ____
ROOT
ATOM      1  C   UNL     1      42.410  78.079  40.289  0.00  0.00    +0.037 C 
ATOM      2  C   UNL     1      41.887  77.054  39.301  0.00  0.00    +0.155 C 
ATOM      3  C   UNL     1      42.692  77.218  38.011  0.00  0.00    +0.066 C 
ATOM      4  C   UNL     1      43.055  78.738  38.114  0.00  0.00    +0.155 C 
ATOM      5  C   UNL     1      43.536  78.721  39.526  0.00  0.00    +0.033 C 
ATOM      6  O   UNL     1      41.872  79.347  37.842  0.00  0.00    -0.223 OA
ATOM      7  O   UNL     1      40.556  77.306  39.024  0.00  0.00    -0.223 OA
ENDROOT
BRANCH   1   8
ATOM      8  C   UNL     1      42.831  77.404  41.571  0.00  0.00    +0.028 C 
BRANCH   8  10
ATOM      9  C   UNL     1      44.911  76.024  42.004  0.00  0.00    -0.031 C 
ATOM     10  C   UNL     1      43.801  76.320  41.417  0.00  0.00    -0.031 C 
BRANCH   9  11
ATOM     11  C   UNL     1      45.318  75.181  43.115  0.00  0.00    +0.026 C 
BRANCH  11  12
ATOM     12  C   UNL     1      44.980  73.731  43.056  0.00  0.00    +0.016 C 
BRANCH  12  13
ATOM     13  C   UNL     1      46.239  72.888  42.910  0.00  0.00    +0.110 C 
BRANCH  13  14
ATOM     14  C   UNL     1      45.998  71.438  43.011  0.00  0.00    +0.317 C 
ATOM     15  O   UNL     1      44.868  70.930  43.212  0.00  0.00    -0.250 OA
BRANCH  14  16
ATOM     16  O   UNL     1      47.042  70.514  42.884  0.00  0.00    -0.452 OA
BRANCH  16  18
ATOM     17  C   UNL     1      47.296  68.674  44.441  0.00  0.00    +0.047 C 
ATOM     18  C   UNL     1      47.746  70.035  43.999  0.00  0.00    +0.169 C 
ATOM     19  C   UNL     1      49.212  69.938  43.581  0.00  0.00    +0.047 C 
ENDBRANCH  16  18
ENDBRANCH  14  16
ENDBRANCH  13  14
ENDBRANCH  12  13
ENDBRANCH  11  12
ENDBRANCH   9  11
ENDBRANCH   8  10
ENDBRANCH   1   8
BRANCH   5  20
ATOM     20  C   UNL     1      44.311  79.758  40.130  0.00  0.00    +0.005 C 
BRANCH  20  21
ATOM     21  C   UNL     1      45.625  80.233  39.733  0.00  0.00    +0.033 C 
BRANCH  21  22
ATOM     22  C   UNL     1      45.941  81.699  39.761  0.00  0.00    +0.152 C 
ATOM     23  O   UNL     1      45.957  82.345  38.565  0.00  0.00    -0.223 OA
BRANCH  22  24
ATOM     24  C   UNL     1      47.047  82.040  40.709  0.00  0.00    +0.038 C 
BRANCH  24  25
ATOM     25  C   UNL     1      47.673  83.378  40.523  0.00  0.00    +0.029 C 
BRANCH  25  26
ATOM     26  C   UNL     1      48.623  83.770  41.589  0.00  0.00    -0.022 A 
ATOM     27  C   UNL     1      49.971  83.617  41.509  0.00  0.00    -0.004 A 
ATOM     28  C   UNL     1      50.780  84.020  42.552  0.00  0.00    -0.000 A 
ATOM     29  C   UNL     1      50.234  84.581  43.686  0.00  0.00    -0.000 A 
ATOM     30  C   UNL     1      48.871  84.749  43.795  0.00  0.00    -0.000 A 
ATOM     31  C   UNL     1      48.075  84.344  42.749  0.00  0.00    -0.004 A 
ENDBRANCH  25  26
ENDBRANCH  24  25
ENDBRANCH  22  24
ENDBRANCH  21  22
ENDBRANCH  20  21
ENDBRANCH   5  20
TORSDOF 14
