REMARK  Name = Lemborexant
REMARK  5 active torsions:
REMARK  status: ('A' for Active; 'I' for Inactive)
REMARK    1  A    between atoms: C_7  and  O_8
REMARK    2  A    between atoms: O_8  and  C_9
REMARK    3  A    between atoms: C_9  and  C_10
REMARK    4  A    between atoms: C_10  and  C_23
REMARK    5  A    between atoms: C_12  and  C_13
REMARK                            x       y       z     vdW  Elec       q    Type
REMARK                         _______ _______ _______ _____ _____    ______ ____
ROOT
ATOM      1  C   UNL     1      49.375  81.733  42.341  0.00  0.00    +0.068 C 
ATOM      2  C   UNL     1      50.443  81.816  41.332  0.00  0.00    +0.018 C 
ATOM      3  C   UNL     1      50.650  81.188  42.734  0.00  0.00    +0.086 C 
ENDROOT
BRANCH   3   4
ATOM      4  C   UNL     1      51.133  79.803  42.700  0.00  0.00    +0.247 C 
ATOM      5  O   UNL     1      51.191  79.044  41.714  0.00  0.00    -0.273 OA
ATOM      6  N   UNL     1      51.616  79.182  43.928  0.00  0.00    -0.160 NA
ATOM      7  C   UNL     1      51.959  77.806  43.969  0.00  0.00    +0.155 A 
ATOM      8  N   UNL     1      51.835  76.980  42.921  0.00  0.00    -0.225 NA
ATOM      9  C   UNL     1      52.172  75.665  42.992  0.00  0.00    +0.130 A 
ATOM     10  C   UNL     1      52.664  75.097  44.154  0.00  0.00    +0.159 A 
ATOM     11  C   UNL     1      52.800  75.931  45.248  0.00  0.00    +0.034 A 
ATOM     12  C   UNL     1      52.446  77.271  45.141  0.00  0.00    +0.039 A 
ATOM     13  F   UNL     1      53.004  73.780  44.233  0.00  0.00    -0.203 F 
ENDBRANCH   3   4
BRANCH   1  14
ATOM     14  C   UNL     1      49.092  83.129  42.962  0.00  0.00    -0.017 A 
ATOM     15  C   UNL     1      50.112  83.978  43.245  0.00  0.00    +0.025 A 
ATOM     16  C   UNL     1      49.896  85.232  43.800  0.00  0.00    +0.140 A 
ATOM     17  C   UNL     1      48.599  85.606  44.063  0.00  0.00    +0.030 A 
ATOM     18  C   UNL     1      47.555  84.772  43.789  0.00  0.00    +0.002 A 
ATOM     19  C   UNL     1      47.807  83.506  43.226  0.00  0.00    -0.004 A 
ATOM     20  F   UNL     1      50.965  86.032  44.057  0.00  0.00    -0.204 F 
ENDBRANCH   1  14
BRANCH   1  21
ATOM     21  C   UNL     1      48.063  81.097  42.083  0.00  0.00    +0.210 C 
BRANCH  21  22
ATOM     22  O   UNL     1      47.286  81.239  41.040  0.00  0.00    -0.472 OA
BRANCH  22  29
ATOM     23  C   UNL     1      46.359  82.893  38.958  0.00  0.00    +0.055 C 
ATOM     24  C   UNL     1      45.706  81.600  39.291  0.00  0.00    +0.096 A 
ATOM     25  N   UNL     1      44.653  81.178  38.607  0.00  0.00    -0.232 NA
ATOM     26  C   UNL     1      44.024  80.027  38.859  0.00  0.00    +0.139 A 
ATOM     27  N   UNL     1      44.489  79.273  39.850  0.00  0.00    -0.226 NA
ATOM     28  C   UNL     1      45.555  79.645  40.581  0.00  0.00    +0.138 A 
ATOM     29  C   UNL     1      46.221  80.822  40.347  0.00  0.00    +0.171 A 
ATOM     30  C   UNL     1      42.859  79.651  38.038  0.00  0.00    +0.074 C 
ENDBRANCH  22  29
ENDBRANCH  21  22
ENDBRANCH   1  21
TORSDOF 5
