REMARK  Name = Lenampicillin_hci
REMARK  7 active torsions:
REMARK  status: ('A' for Active; 'I' for Inactive)
REMARK    1  A    between atoms: C_3  and  C_8
REMARK    2  A    between atoms: C_8  and  O_9
REMARK    3  A    between atoms: O_9  and  C_10
REMARK    4  A    between atoms: C_10  and  C_12
REMARK    5  A    between atoms: C_19  and  N_20
REMARK    6  A    between atoms: C_21  and  C_23
REMARK    7  A    between atoms: C_23  and  C_24
REMARK                            x       y       z     vdW  Elec       q    Type
REMARK                         _______ _______ _______ _____ _____    ______ ____
ROOT
ATOM      1  C   UNL     1      47.860  83.125  39.781  0.00  0.00    +0.184 C 
ATOM      2  C   UNL     1      49.034  82.443  39.107  0.00  0.00    +0.068 C 
ATOM      3  S   UNL     1      48.546  80.701  39.283  0.00  0.00    -0.118 S 
ATOM      4  C   UNL     1      46.892  80.973  39.980  0.00  0.00    +0.153 C 
ATOM      5  N   UNL     1      46.687  82.344  39.539  0.00  0.00    -0.260 N 
ATOM      6  C   UNL     1      45.382  81.962  39.134  0.00  0.00    +0.249 C 
ATOM      7  O   UNL     1      44.266  82.485  38.889  0.00  0.00    -0.273 OA
ATOM      8  C   UNL     1      45.775  80.501  39.067  0.00  0.00    +0.200 C 
ATOM      9  C   UNL     1      50.349  82.735  39.739  0.00  0.00    +0.013 C 
ATOM     10  C   UNL     1      48.997  82.856  37.645  0.00  0.00    +0.013 C 
ENDROOT
BRANCH   8  11
ATOM     11  N   UNL     1      44.761  79.742  39.768  0.00  0.00    -0.194 NA
ATOM     12  C   UNL     1      44.200  78.536  39.244  0.00  0.00    +0.264 C 
ATOM     13  O   UNL     1      44.655  78.181  38.121  0.00  0.00    -0.271 OA
BRANCH  12  14
ATOM     14  C   UNL     1      43.163  77.761  39.961  0.00  0.00    +0.191 C 
ATOM     15  N   UNL     1      42.850  76.591  39.138  0.00  0.00    -0.118 NA
BRANCH  14  16
ATOM     16  C   UNL     1      43.533  77.389  41.325  0.00  0.00    +0.004 A 
ATOM     17  C   UNL     1      43.019  78.067  42.405  0.00  0.00    -0.002 A 
ATOM     18  C   UNL     1      43.386  77.695  43.689  0.00  0.00    -0.000 A 
ATOM     19  C   UNL     1      44.267  76.647  43.917  0.00  0.00    -0.000 A 
ATOM     20  C   UNL     1      44.781  75.970  42.846  0.00  0.00    -0.000 A 
ATOM     21  C   UNL     1      44.406  76.352  41.566  0.00  0.00    -0.002 A 
ENDBRANCH  14  16
ENDBRANCH  12  14
ENDBRANCH   8  11
BRANCH   1  22
ATOM     22  C   UNL     1      48.126  83.180  41.246  0.00  0.00    +0.336 C 
ATOM     23  O   UNL     1      49.146  83.824  41.599  0.00  0.00    -0.248 OA
BRANCH  22  24
ATOM     24  O   UNL     1      47.367  82.602  42.217  0.00  0.00    -0.443 OA
BRANCH  24  25
ATOM     25  C   UNL     1      47.564  82.621  43.593  0.00  0.00    +0.256 C 
BRANCH  25  28
ATOM     26  C   UNL     1      48.647  79.590  44.870  0.00  0.00    +0.052 C 
ATOM     27  C   UNL     1      48.898  80.520  43.696  0.00  0.00    +0.216 C 
ATOM     28  C   UNL     1      48.797  81.986  44.119  0.00  0.00    +0.255 C 
ATOM     29  O   UNL     1      49.975  82.558  43.645  0.00  0.00    -0.414 OA
ATOM     30  C   UNL     1      50.944  81.560  43.468  0.00  0.00    +0.512 C 
ATOM     31  O   UNL     1      52.174  81.731  43.478  0.00  0.00    -0.203 OA
ATOM     32  O   UNL     1      50.266  80.372  43.286  0.00  0.00    -0.418 OA
ENDBRANCH  25  28
ENDBRANCH  24  25
ENDBRANCH  22  24
ENDBRANCH   1  22
TORSDOF 7
REMARK  Name = Lenampicillin_hci
REMARK  7 active torsions:
REMARK  status: ('A' for Active; 'I' for Inactive)
REMARK    1  A    between atoms: C_3  and  C_8
REMARK    2  A    between atoms: C_8  and  O_9
REMARK    3  A    between atoms: O_9  and  C_10
REMARK    4  A    between atoms: C_10  and  C_12
REMARK    5  A    between atoms: C_19  and  N_20
REMARK    6  A    between atoms: C_21  and  C_23
REMARK    7  A    between atoms: C_23  and  C_24
REMARK                            x       y       z     vdW  Elec       q    Type
REMARK                         _______ _______ _______ _____ _____    ______ ____
ROOT
ATOM      1 CL   UNL     1      47.497  80.440  41.229  0.00  0.00    +0.000 Cl
ENDROOT
TORSDOF 0
