REMARK  Name = Lenalidomide
REMARK  1 active torsions:
REMARK  status: ('A' for Active; 'I' for Inactive)
REMARK    1  A    between atoms: C_8  and  N_9
REMARK                            x       y       z     vdW  Elec       q    Type
REMARK                         _______ _______ _______ _____ _____    ______ ____
ROOT
ATOM      1  N   UNL     1      45.523  79.682  39.455  0.00  0.00    -0.265 N 
ATOM      2  C   UNL     1      45.265  78.495  40.191  0.00  0.00    +0.122 C 
ATOM      3  C   UNL     1      43.937  78.023  39.752  0.00  0.00    +0.019 A 
ATOM      4  C   UNL     1      43.450  78.886  38.815  0.00  0.00    +0.053 A 
ATOM      5  C   UNL     1      44.428  79.942  38.606  0.00  0.00    +0.249 C 
ATOM      6  O   UNL     1      44.254  80.891  37.790  0.00  0.00    -0.270 OA
ATOM      7  C   UNL     1      42.200  78.637  38.256  0.00  0.00    +0.004 A 
ATOM      8  C   UNL     1      41.463  77.540  38.638  0.00  0.00    +0.002 A 
ATOM      9  C   UNL     1      41.966  76.676  39.586  0.00  0.00    +0.018 A 
ATOM     10  C   UNL     1      43.177  76.901  40.140  0.00  0.00    +0.087 A 
ATOM     11  N   UNL     1      43.733  76.020  41.133  0.00  0.00    -0.128 NA
ENDROOT
BRANCH   1  19
ATOM     12  C   UNL     1      47.281  80.547  40.901  0.00  0.00    +0.039 C 
ATOM     13  C   UNL     1      48.055  81.720  41.314  0.00  0.00    +0.089 C 
ATOM     14  C   UNL     1      47.891  82.929  40.490  0.00  0.00    +0.248 C 
ATOM     15  O   UNL     1      48.625  83.920  40.769  0.00  0.00    -0.273 OA
ATOM     16  N   UNL     1      46.975  83.045  39.421  0.00  0.00    -0.143 NA
ATOM     17  C   UNL     1      46.329  81.853  39.005  0.00  0.00    +0.266 C 
ATOM     18  O   UNL     1      45.388  81.950  38.162  0.00  0.00    -0.271 OA
ATOM     19  C   UNL     1      46.721  80.547  39.520  0.00  0.00    +0.155 C 
ENDBRANCH   1  19
TORSDOF 1
