REMARK  Name = Lenacapavir
REMARK  15 active torsions:
REMARK  status: ('A' for Active; 'I' for Inactive)
REMARK    1  A    between atoms: C_2  and  C_4
REMARK    2  A    between atoms: C_2  and  S_61
REMARK    3  A    between atoms: C_5  and  C_6
REMARK    4  A    between atoms: C_8  and  C_33
REMARK    5  A    between atoms: C_9  and  C_12
REMARK    6  A    between atoms: N_21  and  C_22
REMARK    7  A    between atoms: C_22  and  C_23
REMARK    8  A    between atoms: N_26  and  S_27
REMARK    9  A    between atoms: S_27  and  C_30
REMARK   10  A    between atoms: C_33  and  C_34
REMARK   11  A    between atoms: C_33  and  N_43
REMARK   12  A    between atoms: C_34  and  C_35
REMARK   13  A    between atoms: C_44  and  C_46
REMARK   14  A    between atoms: C_46  and  N_47
REMARK   15  A    between atoms: C_56  and  C_58
REMARK                            x       y       z     vdW  Elec       q    Type
REMARK                         _______ _______ _______ _____ _____    ______ ____
ROOT
ATOM      1  C   UNL     1      52.427  78.055  44.449  0.00  0.00    +0.122 A 
ATOM      2  N   UNL     1      52.297  79.230  45.073  0.00  0.00    -0.240 NA
ATOM      3  C   UNL     1      51.386  80.184  44.693  0.00  0.00    +0.080 A 
ATOM      4  C   UNL     1      50.574  79.952  43.653  0.00  0.00    +0.017 A 
ATOM      5  C   UNL     1      50.665  78.738  42.956  0.00  0.00    +0.003 A 
ATOM      6  C   UNL     1      51.590  77.827  43.377  0.00  0.00    +0.028 A 
ENDROOT
BRANCH   4   7
ATOM      7  C   UNL     1      49.572  80.931  43.227  0.00  0.00    +0.019 A 
ATOM      8  C   UNL     1      48.588  80.627  42.350  0.00  0.00    +0.082 A 
ATOM      9  C   UNL     1      47.682  81.634  41.955  0.00  0.00    +0.064 A 
ATOM     10  C   UNL     1      47.805  82.903  42.469  0.00  0.00    +0.062 A 
ATOM     11  C   UNL     1      48.825  83.161  43.359  0.00  0.00    +0.012 A 
ATOM     12  C   UNL     1      49.708  82.207  43.746  0.00  0.00    +0.002 A 
ATOM     13 CL   UNL     1      46.631  84.125  42.092  0.00  0.00    -0.082 Cl
ATOM     14  C   UNL     1      46.830  81.074  41.062  0.00  0.00    +0.193 A 
ATOM     15  N   UNL     1      47.253  79.750  40.964  0.00  0.00    -0.151 NA
ATOM     16  N   UNL     1      48.281  79.509  41.726  0.00  0.00    -0.244 N 
ATOM     17  N   UNL     1      45.730  81.497  40.328  0.00  0.00    -0.079 NA
BRANCH  17  18
ATOM     18  S   UNL     1      44.964  81.267  38.874  0.00  0.00    +0.073 S 
ATOM     19  O   UNL     1      43.550  81.998  39.012  0.00  0.00    -0.153 OA
ATOM     20  O   UNL     1      45.515  81.922  37.662  0.00  0.00    -0.153 OA
BRANCH  18  21
ATOM     21  C   UNL     1      44.404  79.590  38.549  0.00  0.00    +0.151 C 
ATOM     22  C   UNL     1      42.907  79.412  38.701  0.00  0.00    +0.027 C 
ATOM     23  C   UNL     1      43.880  78.796  39.662  0.00  0.00    +0.027 C 
ENDBRANCH  18  21
ENDBRANCH  17  18
BRANCH  16  24
ATOM     24  C   UNL     1      48.779  78.140  41.800  0.00  0.00    +0.199 C 
BRANCH  24  25
ATOM     25  C   UNL     1      47.559  77.262  42.119  0.00  0.00    +0.343 C 
ATOM     26  F   UNL     1      47.980  75.997  42.368  0.00  0.00    -0.196 F 
ATOM     27  F   UNL     1      46.795  77.205  40.945  0.00  0.00    -0.196 F 
ENDBRANCH  24  25
ENDBRANCH  16  24
ENDBRANCH   4   7
BRANCH   1  29
ATOM     28  C   UNL     1      54.200  76.248  45.227  0.00  0.00    -0.065 C 
ATOM     29  C   UNL     1      53.382  77.079  44.877  0.00  0.00    -0.044 C 
BRANCH  28  31
ATOM     30  C   UNL     1      55.308  74.135  44.632  0.00  0.00    +0.037 C 
ATOM     31  C   UNL     1      55.186  75.244  45.648  0.00  0.00    +0.164 C 
ATOM     32  C   UNL     1      56.522  75.910  45.832  0.00  0.00    +0.037 C 
BRANCH  31  33
ATOM     33  S   UNL     1      54.586  74.572  47.193  0.00  0.00    -0.001 S 
ATOM     34  O   UNL     1      55.659  73.620  47.684  0.00  0.00    -0.172 OA
ATOM     35  O   UNL     1      53.289  73.862  47.015  0.00  0.00    -0.172 OA
ATOM     36  C   UNL     1      54.449  75.906  48.348  0.00  0.00    +0.177 C 
ENDBRANCH  31  33
ENDBRANCH  28  31
ENDBRANCH   1  29
BRANCH   3  37
ATOM     37  C   UNL     1      51.504  81.447  45.491  0.00  0.00    +0.139 C 
BRANCH  37  38
ATOM     38  N   UNL     1      51.993  81.169  46.820  0.00  0.00    -0.199 NA
ATOM     39  C   UNL     1      51.133  80.794  47.877  0.00  0.00    +0.267 C 
ATOM     40  O   UNL     1      49.898  80.715  47.623  0.00  0.00    -0.271 OA
BRANCH  39  41
ATOM     41  C   UNL     1      51.632  80.498  49.224  0.00  0.00    +0.213 C 
BRANCH  41  42
ATOM     42  N   UNL     1      50.624  80.317  50.236  0.00  0.00    -0.241 N 
ATOM     43  C   UNL     1      50.549  79.416  51.240  0.00  0.00    +0.113 A 
ATOM     44  C   UNL     1      49.409  79.618  51.977  0.00  0.00    +0.017 A 
ATOM     45  C   UNL     1      49.295  78.648  53.089  0.00  0.00    +0.031 C 
ATOM     46  C   UNL     1      49.269  77.197  52.846  0.00  0.00    +0.011 C 
ATOM     47  C   UNL     1      50.582  77.923  53.075  0.00  0.00    +0.071 C 
ATOM     48  C   UNL     1      51.320  78.266  51.804  0.00  0.00    +0.298 C 
ATOM     49  F   UNL     1      52.620  78.630  52.008  0.00  0.00    -0.198 F 
ATOM     50  F   UNL     1      51.204  77.150  50.968  0.00  0.00    -0.198 F 
ATOM     51  C   UNL     1      48.775  80.703  51.369  0.00  0.00    +0.142 A 
ATOM     52  N   UNL     1      49.536  81.072  50.350  0.00  0.00    -0.168 NA
BRANCH  51  53
ATOM     53  C   UNL     1      47.482  81.305  51.812  0.00  0.00    +0.360 C 
ATOM     54  F   UNL     1      47.212  82.483  51.139  0.00  0.00    -0.191 F 
ATOM     55  F   UNL     1      46.444  80.428  51.698  0.00  0.00    -0.191 F 
ENDBRANCH  51  53
ENDBRANCH  41  42
ENDBRANCH  39  41
ENDBRANCH  37  38
BRANCH  37  56
ATOM     56  C   UNL     1      52.635  82.223  44.793  0.00  0.00    +0.054 C 
BRANCH  56  57
ATOM     57  C   UNL     1      52.164  83.371  44.023  0.00  0.00    -0.016 A 
ATOM     58  C   UNL     1      51.588  84.440  44.702  0.00  0.00    +0.026 A 
ATOM     59  C   UNL     1      51.105  85.522  44.013  0.00  0.00    +0.142 A 
ATOM     60  C   UNL     1      51.171  85.595  42.632  0.00  0.00    +0.059 A 
ATOM     61  C   UNL     1      51.754  84.508  41.994  0.00  0.00    +0.142 A 
ATOM     62  C   UNL     1      52.243  83.418  42.654  0.00  0.00    +0.026 A 
ATOM     63  F   UNL     1      51.801  84.587  40.641  0.00  0.00    -0.204 F 
ATOM     64  F   UNL     1      50.538  86.580  44.646  0.00  0.00    -0.204 F 
ENDBRANCH  56  57
ENDBRANCH  37  56
ENDBRANCH   3  37
TORSDOF 15
