REMARK  Name = Leniolisib
REMARK  5 active torsions:
REMARK  status: ('A' for Active; 'I' for Inactive)
REMARK    1  A    between atoms: C_2  and  C_3
REMARK    2  A    between atoms: C_8  and  N_10
REMARK    3  A    between atoms: N_18  and  C_21
REMARK    4  A    between atoms: C_23  and  C_29
REMARK    5  A    between atoms: C_24  and  O_27
REMARK                            x       y       z     vdW  Elec       q    Type
REMARK                         _______ _______ _______ _____ _____    ______ ____
ROOT
ATOM      1  N   UNL     1      45.544  78.401  40.797  0.00  0.00    -0.220 NA
ATOM      2  C   UNL     1      45.388  79.342  39.760  0.00  0.00    +0.148 A 
ATOM      3  N   UNL     1      44.816  78.973  38.586  0.00  0.00    -0.208 NA
ATOM      4  C   UNL     1      44.641  79.824  37.563  0.00  0.00    +0.200 A 
ATOM      5  N   UNL     1      45.037  81.123  37.660  0.00  0.00    -0.228 NA
ATOM      6  C   UNL     1      45.609  81.552  38.794  0.00  0.00    +0.063 A 
ATOM      7  C   UNL     1      45.783  80.663  39.838  0.00  0.00    +0.044 A 
ATOM      8  C   UNL     1      46.414  81.195  41.054  0.00  0.00    +0.122 C 
ATOM      9  N   UNL     1      47.525  82.038  40.690  0.00  0.00    -0.302 N 
ATOM     10  C   UNL     1      47.531  82.785  39.447  0.00  0.00    +0.097 C 
ATOM     11  C   UNL     1      46.075  82.962  38.983  0.00  0.00    +0.067 C 
ENDROOT
BRANCH   1  17
ATOM     12  C   UNL     1      43.379  74.466  39.869  0.00  0.00    +0.226 C 
ATOM     13  O   UNL     1      43.302  74.563  38.619  0.00  0.00    -0.275 OA
ATOM     14  N   UNL     1      43.527  75.609  40.687  0.00  0.00    -0.278 N 
ATOM     15  C   UNL     1      43.573  75.674  42.137  0.00  0.00    +0.095 C 
ATOM     16  C   UNL     1      44.672  76.696  42.344  0.00  0.00    +0.045 C 
ATOM     17  C   UNL     1      44.373  77.715  41.297  0.00  0.00    +0.115 C 
ATOM     18  C   UNL     1      43.663  76.961  40.182  0.00  0.00    +0.115 C 
BRANCH  12  20
ATOM     19  C   UNL     1      42.582  72.189  39.630  0.00  0.00    +0.010 C 
ATOM     20  C   UNL     1      43.318  73.149  40.522  0.00  0.00    +0.085 C 
ENDBRANCH  12  20
ENDBRANCH   1  17
BRANCH   9  21
ATOM     21  C   UNL     1      48.638  82.161  41.558  0.00  0.00    +0.068 A 
ATOM     22  C   UNL     1      48.775  83.285  42.355  0.00  0.00    +0.025 A 
ATOM     23  C   UNL     1      49.870  83.348  43.188  0.00  0.00    +0.126 A 
ATOM     24  C   UNL     1      50.802  82.315  43.222  0.00  0.00    +0.229 A 
ATOM     25  N   UNL     1      50.610  81.261  42.429  0.00  0.00    -0.209 NA
ATOM     26  C   UNL     1      49.563  81.142  41.595  0.00  0.00    +0.116 A 
BRANCH  23  27
ATOM     27  C   UNL     1      50.046  84.536  44.054  0.00  0.00    +0.423 C 
ATOM     28  F   UNL     1      51.193  85.216  43.647  0.00  0.00    -0.166 F 
ATOM     29  F   UNL     1      50.145  84.162  45.390  0.00  0.00    -0.166 F 
ATOM     30  F   UNL     1      49.000  85.403  43.905  0.00  0.00    -0.166 F 
ENDBRANCH  23  27
BRANCH  24  31
ATOM     31  O   UNL     1      51.884  82.440  44.085  0.00  0.00    -0.456 OA
ATOM     32  C   UNL     1      52.539  81.251  44.505  0.00  0.00    +0.254 C 
ENDBRANCH  24  31
ENDBRANCH   9  21
TORSDOF 5
