REMARK  Name = Lentinan
REMARK  19 active torsions:
REMARK  status: ('A' for Active; 'I' for Inactive)
REMARK    1  A    between atoms: C_1  and  C_2
REMARK    2  A    between atoms: C_6  and  O_8
REMARK    3  A    between atoms: O_8  and  C_9
REMARK    4  A    between atoms: C_9  and  C_10
REMARK    5  A    between atoms: C_12  and  O_18
REMARK    6  A    between atoms: O_18  and  C_19
REMARK    7  A    between atoms: C_21  and  O_28
REMARK    8  A    between atoms: C_23  and  C_25
REMARK    9  A    between atoms: O_28  and  C_29
REMARK   10  A    between atoms: C_31  and  O_38
REMARK   11  A    between atoms: C_33  and  C_35
REMARK   12  A    between atoms: O_38  and  C_39
REMARK   13  A    between atoms: C_41  and  O_59
REMARK   14  A    between atoms: C_43  and  C_45
REMARK   15  A    between atoms: C_45  and  O_46
REMARK   16  A    between atoms: O_46  and  C_47
REMARK   17  A    between atoms: C_51  and  C_53
REMARK   18  A    between atoms: O_59  and  C_60
REMARK   19  A    between atoms: C_64  and  C_66
REMARK                            x       y       z     vdW  Elec       q    Type
REMARK                         _______ _______ _______ _____ _____    ______ ____
ROOT
ATOM      1  C   UNL     1      41.421  76.298  37.767  0.00  0.00    +0.269 C 
ATOM      2  C   UNL     1      41.085  74.877  37.985  0.00  0.00    +0.237 C 
ATOM      3  C   UNL     1      39.650  74.528  38.174  0.00  0.00    +0.186 C 
ATOM      4  C   UNL     1      38.795  75.755  38.400  0.00  0.00    +0.211 C 
ATOM      5  C   UNL     1      39.225  76.755  37.307  0.00  0.00    +0.183 C 
ATOM      6  O   UNL     1      40.448  77.219  37.592  0.00  0.00    -0.326 OA
ATOM      7  O   UNL     1      39.024  76.367  39.606  0.00  0.00    -0.218 OA
ATOM      8  O   UNL     1      41.806  74.328  39.081  0.00  0.00    -0.215 OA
ENDROOT
BRANCH   5   9
ATOM      9  C   UNL     1      39.065  76.175  35.923  0.00  0.00    +0.214 C 
ATOM     10  O   UNL     1      39.124  77.205  34.992  0.00  0.00    -0.218 OA
ENDBRANCH   5   9
BRANCH   3  11
ATOM     11  O   UNL     1      39.532  73.528  39.088  0.00  0.00    -0.326 OA
BRANCH  11  12
ATOM     12  C   UNL     1      38.898  72.394  38.615  0.00  0.00    +0.269 C 
ATOM     13  C   UNL     1      37.966  71.760  39.637  0.00  0.00    +0.237 C 
ATOM     14  C   UNL     1      37.536  70.442  39.044  0.00  0.00    +0.186 C 
ATOM     15  C   UNL     1      37.861  70.334  37.567  0.00  0.00    +0.211 C 
ATOM     16  C   UNL     1      37.665  71.633  36.825  0.00  0.00    +0.180 C 
ATOM     17  O   UNL     1      38.141  72.724  37.511  0.00  0.00    -0.326 OA
ATOM     18  O   UNL     1      36.966  69.407  37.014  0.00  0.00    -0.218 OA
ATOM     19  O   UNL     1      38.614  71.553  40.851  0.00  0.00    -0.215 OA
BRANCH  16  20
ATOM     20  C   UNL     1      36.197  71.866  36.508  0.00  0.00    +0.177 C 
BRANCH  20  21
ATOM     21  O   UNL     1      35.788  71.019  35.514  0.00  0.00    -0.326 OA
BRANCH  21  22
ATOM     22  C   UNL     1      35.631  71.738  34.331  0.00  0.00    +0.270 C 
ATOM     23  C   UNL     1      36.415  70.980  33.263  0.00  0.00    +0.241 C 
ATOM     24  C   UNL     1      36.673  71.892  32.081  0.00  0.00    +0.220 C 
ATOM     25  C   UNL     1      35.924  73.196  32.183  0.00  0.00    +0.214 C 
ATOM     26  C   UNL     1      36.059  73.835  33.536  0.00  0.00    +0.183 C 
ATOM     27  O   UNL     1      36.321  72.947  34.553  0.00  0.00    -0.326 OA
ATOM     28  O   UNL     1      34.584  72.957  31.931  0.00  0.00    -0.218 OA
ATOM     29  O   UNL     1      38.047  72.103  31.927  0.00  0.00    -0.217 OA
ATOM     30  O   UNL     1      37.631  70.627  33.826  0.00  0.00    -0.215 OA
BRANCH  26  31
ATOM     31  C   UNL     1      37.181  74.874  33.563  0.00  0.00    +0.214 C 
ATOM     32  O   UNL     1      38.403  74.331  33.214  0.00  0.00    -0.218 OA
ENDBRANCH  26  31
ENDBRANCH  21  22
ENDBRANCH  20  21
ENDBRANCH  16  20
BRANCH  14  33
ATOM     33  O   UNL     1      38.336  69.455  39.660  0.00  0.00    -0.326 OA
BRANCH  33  34
ATOM     34  C   UNL     1      37.571  68.485  40.309  0.00  0.00    +0.270 C 
ATOM     35  C   UNL     1      38.528  67.494  40.927  0.00  0.00    +0.241 C 
ATOM     36  C   UNL     1      37.990  66.086  40.901  0.00  0.00    +0.220 C 
ATOM     37  C   UNL     1      36.484  66.162  41.050  0.00  0.00    +0.214 C 
ATOM     38  C   UNL     1      35.878  66.948  39.908  0.00  0.00    +0.183 C 
ATOM     39  O   UNL     1      36.792  67.852  39.372  0.00  0.00    -0.326 OA
ATOM     40  O   UNL     1      35.975  64.888  41.050  0.00  0.00    -0.218 OA
ATOM     41  O   UNL     1      38.558  65.364  41.949  0.00  0.00    -0.217 OA
ATOM     42  O   UNL     1      38.839  67.859  42.240  0.00  0.00    -0.215 OA
BRANCH  38  43
ATOM     43  C   UNL     1      35.373  65.981  38.874  0.00  0.00    +0.214 C 
ATOM     44  O   UNL     1      34.837  66.638  37.780  0.00  0.00    -0.218 OA
ENDBRANCH  38  43
ENDBRANCH  33  34
ENDBRANCH  14  33
ENDBRANCH  11  12
ENDBRANCH   3  11
BRANCH   1  45
ATOM     45  O   UNL     1      42.146  76.744  38.917  0.00  0.00    -0.326 OA
BRANCH  45  48
ATOM     46  C   UNL     1      44.147  78.436  40.298  0.00  0.00    +0.269 C 
ATOM     47  C   UNL     1      44.214  77.857  38.907  0.00  0.00    +0.237 C 
ATOM     48  C   UNL     1      43.486  76.487  38.848  0.00  0.00    +0.186 C 
ATOM     49  C   UNL     1      44.068  75.697  39.970  0.00  0.00    +0.211 C 
ATOM     50  C   UNL     1      43.646  76.381  41.264  0.00  0.00    +0.183 C 
ATOM     51  O   UNL     1      43.205  77.678  41.014  0.00  0.00    -0.326 OA
ATOM     52  O   UNL     1      43.716  74.371  40.019  0.00  0.00    -0.218 OA
ATOM     53  O   UNL     1      43.519  78.698  38.045  0.00  0.00    -0.215 OA
BRANCH  50  54
ATOM     54  C   UNL     1      44.782  76.293  42.230  0.00  0.00    +0.214 C 
ATOM     55  O   UNL     1      46.004  76.470  41.586  0.00  0.00    -0.218 OA
ENDBRANCH  50  54
BRANCH  46  56
ATOM     56  O   UNL     1      43.731  79.734  40.190  0.00  0.00    -0.326 OA
BRANCH  56  59
ATOM     57  C   UNL     1      46.789  81.509  41.171  0.00  0.00    +0.180 C 
ATOM     58  C   UNL     1      45.943  80.230  40.997  0.00  0.00    +0.211 C 
ATOM     59  C   UNL     1      44.707  80.704  40.242  0.00  0.00    +0.186 C 
ATOM     60  C   UNL     1      45.154  81.204  38.917  0.00  0.00    +0.240 C 
ATOM     61  C   UNL     1      46.182  82.289  39.120  0.00  0.00    +0.302 C 
ATOM     62  O   UNL     1      47.240  81.906  39.941  0.00  0.00    -0.324 OA
ATOM     63  O   UNL     1      45.521  83.416  39.643  0.00  0.00    -0.187 OA
ATOM     64  O   UNL     1      45.801  80.197  38.169  0.00  0.00    -0.215 OA
ATOM     65  O   UNL     1      46.671  79.414  40.136  0.00  0.00    -0.218 OA
BRANCH  57  66
ATOM     66  C   UNL     1      47.832  81.284  42.195  0.00  0.00    +0.177 C 
BRANCH  66  67
ATOM     67  O   UNL     1      49.044  81.879  42.015  0.00  0.00    -0.326 OA
BRANCH  67  72
ATOM     68  C   UNL     1      50.492  81.563  44.118  0.00  0.00    +0.183 C 
ATOM     69  C   UNL     1      51.870  82.205  43.899  0.00  0.00    +0.214 C 
ATOM     70  C   UNL     1      51.822  82.859  42.526  0.00  0.00    +0.220 C 
ATOM     71  C   UNL     1      50.600  83.684  42.303  0.00  0.00    +0.241 C 
ATOM     72  C   UNL     1      49.333  82.968  42.788  0.00  0.00    +0.270 C 
ATOM     73  O   UNL     1      49.562  82.568  44.096  0.00  0.00    -0.326 OA
ATOM     74  O   UNL     1      50.660  84.898  42.984  0.00  0.00    -0.215 OA
ATOM     75  O   UNL     1      51.907  81.877  41.519  0.00  0.00    -0.217 OA
ATOM     76  O   UNL     1      52.140  83.159  44.856  0.00  0.00    -0.218 OA
BRANCH  68  77
ATOM     77  C   UNL     1      50.514  80.837  45.463  0.00  0.00    +0.214 C 
ATOM     78  O   UNL     1      49.306  80.130  45.570  0.00  0.00    -0.218 OA
ENDBRANCH  68  77
ENDBRANCH  67  72
ENDBRANCH  66  67
ENDBRANCH  57  66
ENDBRANCH  56  59
ENDBRANCH  46  56
ENDBRANCH  45  48
ENDBRANCH   1  45
TORSDOF 19
