REMARK  Name = Lenvatinib
REMARK  6 active torsions:
REMARK  status: ('A' for Active; 'I' for Inactive)
REMARK    1  A    between atoms: O_2  and  C_3
REMARK    2  A    between atoms: C_9  and  O_16
REMARK    3  A    between atoms: C_12  and  C_13
REMARK    4  A    between atoms: O_16  and  C_17
REMARK    5  A    between atoms: C_20  and  N_23
REMARK    6  A    between atoms: N_26  and  C_27
REMARK                            x       y       z     vdW  Elec       q    Type
REMARK                         _______ _______ _______ _____ _____    ______ ____
ROOT
ATOM      1  C   UNL     1      43.697  78.996  39.296  0.00  0.00    +0.145 A 
ATOM      2  C   UNL     1      44.069  80.158  38.644  0.00  0.00    +0.056 A 
ATOM      3  C   UNL     1      45.088  80.971  39.097  0.00  0.00    +0.087 A 
ATOM      4  N   UNL     1      45.427  82.110  38.449  0.00  0.00    -0.244 NA
ATOM      5  C   UNL     1      46.404  82.936  38.859  0.00  0.00    +0.102 A 
ATOM      6  C   UNL     1      47.075  82.568  40.007  0.00  0.00    +0.058 A 
ATOM      7  C   UNL     1      46.756  81.404  40.701  0.00  0.00    +0.148 A 
ATOM      8  C   UNL     1      45.748  80.586  40.249  0.00  0.00    +0.053 A 
ATOM      9  C   UNL     1      45.364  79.413  40.897  0.00  0.00    +0.012 A 
ATOM     10  C   UNL     1      44.346  78.600  40.445  0.00  0.00    +0.091 A 
ENDROOT
BRANCH  10  11
ATOM     11  C   UNL     1      43.958  77.375  41.136  0.00  0.00    +0.287 C 
ATOM     12  O   UNL     1      43.003  76.659  40.777  0.00  0.00    -0.267 OA
ATOM     13  N   UNL     1      44.694  76.964  42.276  0.00  0.00    -0.084 NA
ENDBRANCH  10  11
BRANCH   1  15
ATOM     14  C   UNL     1      41.985  78.583  37.674  0.00  0.00    +0.252 C 
ATOM     15  O   UNL     1      42.670  78.173  38.843  0.00  0.00    -0.471 OA
ENDBRANCH   1  15
BRANCH   7  16
ATOM     16  O   UNL     1      47.443  81.058  41.845  0.00  0.00    -0.453 OA
BRANCH  16  17
ATOM     17  C   UNL     1      48.486  81.723  42.420  0.00  0.00    +0.146 A 
ATOM     18  C   UNL     1      49.764  81.396  42.002  0.00  0.00    +0.050 A 
ATOM     19  C   UNL     1      50.887  82.006  42.521  0.00  0.00    +0.076 A 
ATOM     20  C   UNL     1      50.775  82.978  43.492  0.00  0.00    +0.086 A 
ATOM     21  C   UNL     1      49.509  83.316  43.920  0.00  0.00    +0.021 A 
ATOM     22  C   UNL     1      48.390  82.697  43.392  0.00  0.00    +0.039 A 
ATOM     23 CL   UNL     1      52.494  81.568  41.967  0.00  0.00    -0.081 Cl
BRANCH  20  24
ATOM     24  N   UNL     1      51.946  83.604  44.023  0.00  0.00    -0.160 NA
ATOM     25  C   UNL     1      51.833  84.514  45.131  0.00  0.00    +0.343 C 
ATOM     26  O   UNL     1      50.741  85.003  45.465  0.00  0.00    -0.249 OA
ATOM     27  N   UNL     1      52.991  84.874  45.874  0.00  0.00    -0.189 NA
BRANCH  27  28
ATOM     28  C   UNL     1      52.972  85.869  46.935  0.00  0.00    +0.097 C 
ATOM     29  C   UNL     1      54.239  85.905  47.746  0.00  0.00    +0.023 C 
ATOM     30  C   UNL     1      52.973  85.382  48.319  0.00  0.00    +0.023 C 
ENDBRANCH  27  28
ENDBRANCH  20  24
ENDBRANCH  16  17
ENDBRANCH   7  16
TORSDOF 6
