REMARK  Name = Lercanidipine
REMARK  14 active torsions:
REMARK  status: ('A' for Active; 'I' for Inactive)
REMARK    1  A    between atoms: C_3  and  C_42
REMARK    2  A    between atoms: C_4  and  C_33
REMARK    3  A    between atoms: C_5  and  C_9
REMARK    4  A    between atoms: C_9  and  O_11
REMARK    5  A    between atoms: O_11  and  C_12
REMARK    6  A    between atoms: C_12  and  C_15
REMARK    7  A    between atoms: C_15  and  N_16
REMARK    8  A    between atoms: N_16  and  C_18
REMARK    9  A    between atoms: C_18  and  C_19
REMARK   10  A    between atoms: C_19  and  C_20
REMARK   11  A    between atoms: C_20  and  C_21
REMARK   12  A    between atoms: C_20  and  C_27
REMARK   13  A    between atoms: C_35  and  N_39
REMARK   14  A    between atoms: C_42  and  O_44
REMARK                            x       y       z     vdW  Elec       q    Type
REMARK                         _______ _______ _______ _____ _____    ______ ____
ROOT
ATOM      1  C   UNL     1      44.694  79.583  40.494  0.00  0.00    +0.339 C 
ATOM      2  O   UNL     1      43.906  80.022  41.356  0.00  0.00    -0.245 OA
ENDROOT
BRANCH   1   7
ATOM      3  C   UNL     1      46.948  83.380  36.818  0.00  0.00    +0.049 C 
ATOM      4  C   UNL     1      46.379  82.372  37.793  0.00  0.00    +0.051 C 
ATOM      5  C   UNL     1      47.178  81.889  38.716  0.00  0.00    +0.073 C 
ATOM      6  C   UNL     1      46.674  80.896  39.698  0.00  0.00    +0.081 C 
ATOM      7  C   UNL     1      45.261  80.558  39.529  0.00  0.00    +0.073 C 
ATOM      8  C   UNL     1      44.472  81.070  38.580  0.00  0.00    +0.051 C 
ATOM      9  N   UNL     1      45.001  82.008  37.660  0.00  0.00    -0.221 NA
ATOM     10  C   UNL     1      43.038  80.670  38.473  0.00  0.00    +0.049 C 
BRANCH   6  11
ATOM     11  C   UNL     1      46.997  81.318  41.092  0.00  0.00    -0.012 A 
ATOM     12  C   UNL     1      47.627  82.513  41.382  0.00  0.00    +0.020 A 
ATOM     13  C   UNL     1      47.920  82.913  42.676  0.00  0.00    +0.143 A 
ATOM     14  C   UNL     1      47.571  82.086  43.708  0.00  0.00    +0.024 A 
ATOM     15  C   UNL     1      46.932  80.868  43.463  0.00  0.00    +0.001 A 
ATOM     16  C   UNL     1      46.662  80.514  42.162  0.00  0.00    -0.004 A 
BRANCH  13  17
ATOM     17  N   UNL     1      48.566  84.147  42.925  0.00  0.00    +0.058 N 
ATOM     18  O   UNL     1      48.776  84.487  44.100  0.00  0.00    -0.126 OA
ATOM     19  O   UNL     1      48.955  84.963  41.903  0.00  0.00    -0.126 OA
ENDBRANCH  13  17
ENDBRANCH   6  11
BRANCH   5  20
ATOM     20  C   UNL     1      48.594  82.327  38.813  0.00  0.00    +0.339 C 
ATOM     21  O   UNL     1      49.148  82.670  37.741  0.00  0.00    -0.245 OA
BRANCH  20  22
ATOM     22  O   UNL     1      49.329  82.385  39.948  0.00  0.00    -0.442 OA
ATOM     23  C   UNL     1      50.624  81.925  40.145  0.00  0.00    +0.256 C 
ENDBRANCH  20  22
ENDBRANCH   5  20
ENDBRANCH   1   7
BRANCH   1  24
ATOM     24  O   UNL     1      44.976  78.265  40.496  0.00  0.00    -0.451 OA
BRANCH  24  25
ATOM     25  C   UNL     1      44.954  77.312  41.498  0.00  0.00    +0.151 C 
ATOM     26  C   UNL     1      43.585  77.643  42.240  0.00  0.00    +0.045 C 
ATOM     27  C   UNL     1      44.778  75.896  41.092  0.00  0.00    +0.045 C 
BRANCH  25  28
ATOM     28  C   UNL     1      45.961  77.472  42.590  0.00  0.00    +0.113 C 
BRANCH  28  29
ATOM     29  N   UNL     1      47.310  77.151  42.360  0.00  0.00    -0.269 NA
ATOM     30  C   UNL     1      47.674  77.540  40.957  0.00  0.00    +0.090 C 
BRANCH  29  31
ATOM     31  C   UNL     1      48.335  77.756  43.149  0.00  0.00    +0.073 C 
BRANCH  31  32
ATOM     32  C   UNL     1      49.671  77.075  43.014  0.00  0.00    +0.026 C 
BRANCH  32  33
ATOM     33  C   UNL     1      50.663  77.660  43.979  0.00  0.00    +0.046 C 
BRANCH  33  34
ATOM     34  C   UNL     1      51.858  76.787  44.021  0.00  0.00    -0.018 A 
ATOM     35  C   UNL     1      52.174  76.068  45.172  0.00  0.00    -0.004 A 
ATOM     36  C   UNL     1      53.276  75.265  45.275  0.00  0.00    -0.000 A 
ATOM     37  C   UNL     1      54.133  75.144  44.201  0.00  0.00    -0.000 A 
ATOM     38  C   UNL     1      53.871  75.832  43.036  0.00  0.00    -0.000 A 
ATOM     39  C   UNL     1      52.734  76.643  42.970  0.00  0.00    -0.004 A 
ENDBRANCH  33  34
BRANCH  33  40
ATOM     40  C   UNL     1      51.060  79.045  43.745  0.00  0.00    -0.018 A 
ATOM     41  C   UNL     1      51.033  80.042  44.688  0.00  0.00    -0.004 A 
ATOM     42  C   UNL     1      51.423  81.334  44.391  0.00  0.00    -0.000 A 
ATOM     43  C   UNL     1      51.857  81.692  43.138  0.00  0.00    -0.000 A 
ATOM     44  C   UNL     1      51.892  80.698  42.168  0.00  0.00    -0.000 A 
ATOM     45  C   UNL     1      51.502  79.403  42.464  0.00  0.00    -0.004 A 
ENDBRANCH  33  40
ENDBRANCH  32  33
ENDBRANCH  31  32
ENDBRANCH  29  31
ENDBRANCH  28  29
ENDBRANCH  25  28
ENDBRANCH  24  25
ENDBRANCH   1  24
TORSDOF 14
