REMARK  Name = Lesinurad
REMARK  5 active torsions:
REMARK  status: ('A' for Active; 'I' for Inactive)
REMARK    1  A    between atoms: C_3  and  C_4
REMARK    2  A    between atoms: C_7  and  N_14
REMARK    3  A    between atoms: C_15  and  S_20
REMARK    4  A    between atoms: S_20  and  C_21
REMARK    5  A    between atoms: C_21  and  C_22
REMARK                            x       y       z     vdW  Elec       q    Type
REMARK                         _______ _______ _______ _____ _____    ______ ____
ROOT
ATOM      1  C   UNL     1      49.916  81.891  42.537  0.00  0.00    -0.022 A 
ATOM      2  C   UNL     1      49.927  80.931  41.555  0.00  0.00    -0.003 A 
ATOM      3  C   UNL     1      48.858  80.754  40.690  0.00  0.00    +0.017 A 
ATOM      4  C   UNL     1      47.767  81.556  40.816  0.00  0.00    +0.068 A 
ATOM      5  C   UNL     1      47.722  82.529  41.790  0.00  0.00    +0.016 A 
ATOM      6  C   UNL     1      46.635  83.351  41.938  0.00  0.00    +0.001 A 
ATOM      7  C   UNL     1      46.622  84.308  42.913  0.00  0.00    +0.000 A 
ATOM      8  C   UNL     1      47.688  84.471  43.763  0.00  0.00    -0.000 A 
ATOM      9  C   UNL     1      48.786  83.667  43.641  0.00  0.00    -0.000 A 
ATOM     10  C   UNL     1      48.808  82.699  42.659  0.00  0.00    -0.003 A 
ENDROOT
BRANCH   4  11
ATOM     11  N   UNL     1      46.685  81.359  39.915  0.00  0.00    -0.264 N 
ATOM     12  C   UNL     1      45.775  80.377  39.924  0.00  0.00    +0.198 A 
ATOM     13  N   UNL     1      44.920  80.556  38.893  0.00  0.00    -0.121 NA
ATOM     14  N   UNL     1      45.277  81.639  38.231  0.00  0.00    -0.121 NA
ATOM     15  C   UNL     1      46.360  82.144  38.846  0.00  0.00    +0.205 A 
ATOM     16 BR   UNL     1      47.327  83.698  38.356  0.00  0.00    -0.006 Br
BRANCH  12  17
ATOM     17  S   UNL     1      45.721  79.046  41.133  0.00  0.00    -0.063 S 
BRANCH  17  18
ATOM     18  C   UNL     1      44.147  78.144  40.917  0.00  0.00    +0.179 C 
BRANCH  18  19
ATOM     19  C   UNL     1      44.178  76.879  41.688  0.00  0.00    +0.376 C 
ATOM     20  O   UNL     1      43.634  76.822  42.820  0.00  0.00    -0.245 OA
ATOM     21  O   UNL     1      44.793  75.763  41.185  0.00  0.00    -0.245 OA
ENDBRANCH  18  19
ENDBRANCH  17  18
ENDBRANCH  12  17
ENDBRANCH   4  11
BRANCH   1  24
ATOM     22  C   UNL     1      52.415  81.714  42.758  0.00  0.00    +0.005 C 
ATOM     23  C   UNL     1      52.105  83.066  43.263  0.00  0.00    +0.005 C 
ATOM     24  C   UNL     1      51.061  82.037  43.425  0.00  0.00    +0.022 C 
ENDBRANCH   1  24
TORSDOF 5
