REMARK  Name = Lestaurtinib
REMARK  1 active torsions:
REMARK  status: ('A' for Active; 'I' for Inactive)
REMARK    1  A    between atoms: C_3  and  C_31
REMARK                            x       y       z     vdW  Elec       q    Type
REMARK                         _______ _______ _______ _____ _____    ______ ____
ROOT
ATOM      1  C   UNL     1      47.907  76.062  43.056  0.00  0.00    +0.057 C 
ATOM      2  C   UNL     1      46.881  76.945  42.447  0.00  0.00    +0.193 C 
ATOM      3  C   UNL     1      45.670  77.028  43.303  0.00  0.00    +0.202 C 
ATOM      4  C   UNL     1      44.474  76.596  42.428  0.00  0.00    +0.091 C 
ATOM      5  C   UNL     1      45.105  76.471  41.108  0.00  0.00    +0.209 C 
ATOM      6  O   UNL     1      46.452  76.361  41.234  0.00  0.00    -0.318 OA
ATOM      7  N   UNL     1      44.768  77.692  40.350  0.00  0.00    -0.304 N 
ATOM      8  C   UNL     1      43.801  77.901  39.494  0.00  0.00    +0.062 A 
ATOM      9  C   UNL     1      42.778  77.050  39.076  0.00  0.00    +0.017 A 
ATOM     10  C   UNL     1      41.832  77.436  38.156  0.00  0.00    +0.001 A 
ATOM     11  C   UNL     1      41.938  78.713  37.657  0.00  0.00    +0.000 A 
ATOM     12  C   UNL     1      42.946  79.594  38.050  0.00  0.00    +0.001 A 
ATOM     13  C   UNL     1      43.871  79.181  38.966  0.00  0.00    +0.017 A 
ATOM     14  C   UNL     1      44.964  79.770  39.559  0.00  0.00    +0.023 A 
ATOM     15  C   UNL     1      45.581  80.998  39.483  0.00  0.00    +0.054 A 
ATOM     16  C   UNL     1      46.699  81.229  40.259  0.00  0.00    +0.005 A 
ATOM     17  C   UNL     1      47.246  80.285  41.125  0.00  0.00    +0.017 A 
ATOM     18  C   UNL     1      48.293  80.239  42.006  0.00  0.00    +0.017 A 
ATOM     19  C   UNL     1      49.244  81.176  42.356  0.00  0.00    +0.001 A 
ATOM     20  C   UNL     1      50.222  80.928  43.294  0.00  0.00    +0.000 A 
ATOM     21  C   UNL     1      50.230  79.667  43.903  0.00  0.00    +0.001 A 
ATOM     22  C   UNL     1      49.288  78.709  43.571  0.00  0.00    +0.017 A 
ATOM     23  C   UNL     1      48.320  78.993  42.623  0.00  0.00    +0.062 A 
ATOM     24  N   UNL     1      47.280  78.297  42.097  0.00  0.00    -0.305 N 
ATOM     25  C   UNL     1      46.614  79.067  41.184  0.00  0.00    +0.077 A 
ATOM     26  C   UNL     1      45.492  78.819  40.409  0.00  0.00    +0.078 A 
ATOM     27  C   UNL     1      47.167  82.604  39.997  0.00  0.00    +0.142 C 
ATOM     28  N   UNL     1      46.264  83.152  39.033  0.00  0.00    -0.197 NA
ATOM     29  C   UNL     1      45.264  82.164  38.698  0.00  0.00    +0.265 C 
ATOM     30  O   UNL     1      44.368  82.424  37.871  0.00  0.00    -0.268 OA
ATOM     31  O   UNL     1      45.416  78.365  43.737  0.00  0.00    -0.218 OA
ENDROOT
BRANCH   3  32
ATOM     32  C   UNL     1      45.562  76.215  44.528  0.00  0.00    +0.217 C 
ATOM     33  O   UNL     1      46.002  74.895  44.426  0.00  0.00    -0.218 OA
ENDBRANCH   3  32
TORSDOF 1
