REMARK  Name = Letrozole
REMARK  5 active torsions:
REMARK  status: ('A' for Active; 'I' for Inactive)
REMARK    1  A    between atoms: C_3  and  C_9
REMARK    2  A    between atoms: C_6  and  C_7
REMARK    3  A    between atoms: C_9  and  C_10
REMARK    4  A    between atoms: C_9  and  N_18
REMARK    5  A    between atoms: C_13  and  C_16
REMARK                            x       y       z     vdW  Elec       q    Type
REMARK                         _______ _______ _______ _____ _____    ______ ____
ROOT
ATOM      1  C   UNL     1      45.939  81.189  41.094  0.00  0.00    +0.151 C 
ENDROOT
BRANCH   1   4
ATOM      2  C   UNL     1      48.253  83.344  43.180  0.00  0.00    +0.010 A 
ATOM      3  C   UNL     1      47.112  82.729  42.648  0.00  0.00    -0.001 A 
ATOM      4  C   UNL     1      47.206  81.806  41.627  0.00  0.00    +0.004 A 
ATOM      5  C   UNL     1      48.452  81.500  41.137  0.00  0.00    -0.001 A 
ATOM      6  C   UNL     1      49.607  82.084  41.634  0.00  0.00    +0.010 A 
ATOM      7  C   UNL     1      49.497  83.001  42.650  0.00  0.00    +0.068 A 
BRANCH   7   8
ATOM      8  C   UNL     1      50.676  83.617  43.163  0.00  0.00    +0.100 C 
ATOM      9  N   UNL     1      51.663  84.109  43.589  0.00  0.00    -0.191 NA
ENDBRANCH   7   8
ENDBRANCH   1   4
BRANCH   1  10
ATOM     10  C   UNL     1      45.896  79.758  41.432  0.00  0.00    +0.004 A 
ATOM     11  C   UNL     1      44.661  79.264  41.892  0.00  0.00    -0.001 A 
ATOM     12  C   UNL     1      44.465  77.954  42.243  0.00  0.00    +0.010 A 
ATOM     13  C   UNL     1      45.519  77.090  42.141  0.00  0.00    +0.068 A 
ATOM     14  C   UNL     1      46.736  77.551  41.695  0.00  0.00    +0.010 A 
ATOM     15  C   UNL     1      46.927  78.869  41.343  0.00  0.00    -0.001 A 
BRANCH  13  16
ATOM     16  C   UNL     1      45.288  75.696  42.513  0.00  0.00    +0.100 C 
ATOM     17  N   UNL     1      45.105  74.623  42.816  0.00  0.00    -0.191 NA
ENDBRANCH  13  16
ENDBRANCH   1  10
BRANCH   1  18
ATOM     18  N   UNL     1      45.765  81.471  39.700  0.00  0.00    -0.224 N 
ATOM     19  C   UNL     1      46.136  82.588  39.060  0.00  0.00    +0.198 A 
ATOM     20  N   UNL     1      45.809  82.492  37.749  0.00  0.00    -0.201 NA
ATOM     21  C   UNL     1      45.228  81.273  37.631  0.00  0.00    +0.221 A 
ATOM     22  N   UNL     1      45.206  80.654  38.827  0.00  0.00    -0.145 NA
ENDBRANCH   1  18
TORSDOF 5
