REMARK  Name = Leucovorin/5-fluorouracil
REMARK  9 active torsions:
REMARK  status: ('A' for Active; 'I' for Inactive)
REMARK    1  A    between atoms: C_2  and  C_15
REMARK    2  A    between atoms: C_15  and  N_16
REMARK    3  A    between atoms: N_16  and  C_17
REMARK    4  A    between atoms: C_20  and  C_23
REMARK    5  A    between atoms: N_25  and  CA_26
REMARK    6  A    between atoms: CA_26  and  CB_27
REMARK    7  A    between atoms: CA_26  and  C_32
REMARK    8  A    between atoms: CB_27  and  CG_28
REMARK    9  A    between atoms: CG_28  and  CD_29
REMARK                            x       y       z     vdW  Elec       q    Type
REMARK                         _______ _______ _______ _____ _____    ______ ____
ROOT
ATOM      1  C   UNK A   0      47.612  79.354  40.350  0.00  0.00    +0.065 A 
ATOM      2  C   UNK A   0      48.673  80.003  39.779  0.00  0.00    +0.016 A 
ATOM      3  C   UNK A   0      49.294  81.040  40.480  0.00  0.00    +0.006 A 
ATOM      4  C   UNK A   0      48.888  81.443  41.727  0.00  0.00    +0.055 A 
ATOM      5  C   UNK A   0      47.817  80.770  42.275  0.00  0.00    +0.006 A 
ATOM      6  C   UNK A   0      47.185  79.740  41.601  0.00  0.00    +0.016 A 
ENDROOT
BRANCH   4   7
ATOM      7  C   UNK A   0      49.539  82.533  42.464  0.00  0.00    +0.265 C 
ATOM      8  O   UNK A   0      49.157  82.733  43.661  0.00  0.00    -0.268 OA
ATOM      9  N   GLU A   1      50.541  83.356  41.941  0.00  0.00    -0.192 NA
BRANCH   9  10
ATOM     10  CA  GLU A   1      51.709  83.870  42.608  0.00  0.00    +0.199 C 
BRANCH  10  11
ATOM     11  C   GLU A   1      52.963  83.309  42.136  0.00  0.00    +0.384 C 
ATOM     12  O   GLU A   1      54.018  83.458  42.774  0.00  0.00    -0.244 OA
ATOM     13  OXT GLU A   1      53.035  82.580  40.948  0.00  0.00    -0.244 OA
ENDBRANCH  10  11
BRANCH  10  14
ATOM     14  CB  GLU A   1      51.710  85.381  42.789  0.00  0.00    +0.045 C 
BRANCH  14  15
ATOM     15  CG  GLU A   1      50.298  85.865  42.869  0.00  0.00    +0.116 C 
BRANCH  15  16
ATOM     16  CD  GLU A   1      49.730  85.659  44.230  0.00  0.00    +0.365 C 
ATOM     17  OE1 GLU A   1      48.519  85.809  44.493  0.00  0.00    -0.246 OA
ATOM     18  OE2 GLU A   1      50.579  85.287  45.240  0.00  0.00    -0.246 OA
ENDBRANCH  15  16
ENDBRANCH  14  15
ENDBRANCH  10  14
ENDBRANCH   9  10
ENDBRANCH   4   7
BRANCH   1  19
ATOM     19  N   UNK A   0      46.948  78.325  39.677  0.00  0.00    -0.236 NA
BRANCH  19  20
ATOM     20  C   UNK A   0      45.645  77.890  40.022  0.00  0.00    +0.134 C 
BRANCH  20  22
ATOM     21  C   UNK A   0      44.544  80.064  39.614  0.00  0.00    +0.136 C 
ATOM     22  C   UNK A   0      44.758  78.965  40.608  0.00  0.00    +0.124 C 
ATOM     23  N   UNK A   0      43.470  78.306  40.924  0.00  0.00    -0.243 N 
ATOM     24  C   UNK A   0      42.603  77.962  39.861  0.00  0.00    +0.146 A 
ATOM     25  C   UNK A   0      42.515  78.865  38.799  0.00  0.00    +0.169 A 
ATOM     26  N   UNK A   0      43.304  80.026  38.902  0.00  0.00    -0.217 NA
ATOM     27  N   UNK A   0      41.709  78.591  37.768  0.00  0.00    -0.193 NA
ATOM     28  C   UNK A   0      41.012  77.449  37.793  0.00  0.00    +0.260 A 
ATOM     29  N   UNK A   0      41.080  76.555  38.811  0.00  0.00    -0.171 NA
ATOM     30  C   UNK A   0      41.877  76.793  39.864  0.00  0.00    +0.298 A 
ATOM     31  O   UNK A   0      41.995  76.016  40.838  0.00  0.00    -0.264 OA
ATOM     32  N   UNK A   0      40.153  77.148  36.704  0.00  0.00    -0.086 NA
ATOM     33  C   UNK A   0      43.103  78.058  42.246  0.00  0.00    +0.307 C 
ATOM     34  O   UNK A   0      43.715  77.322  43.026  0.00  0.00    -0.265 OA
ENDBRANCH  20  22
ENDBRANCH  19  20
ENDBRANCH   1  19
TORSDOF 9
