REMARK  Name = Leuprolide
REMARK  32 active torsions:
REMARK  status: ('A' for Active; 'I' for Inactive)
REMARK    1  A    between atoms: C_2  and  N_3
REMARK    2  A    between atoms: C_4  and  C_6
REMARK    3  A    between atoms: C_11  and  C_13
REMARK    4  A    between atoms: C_13  and  C_14
REMARK    5  A    between atoms: C_13  and  N_21
REMARK    6  A    between atoms: C_14  and  C_15
REMARK    7  A    between atoms: C_15  and  C_16
REMARK    8  A    between atoms: C_16  and  N_17
REMARK    9  A    between atoms: C_22  and  C_24
REMARK   10  A    between atoms: C_24  and  C_25
REMARK   11  A    between atoms: C_24  and  N_29
REMARK   12  A    between atoms: C_25  and  C_26
REMARK   13  A    between atoms: C_30  and  C_32
REMARK   14  A    between atoms: C_32  and  C_33
REMARK   15  A    between atoms: C_32  and  N_37
REMARK   16  A    between atoms: C_33  and  C_34
REMARK   17  A    between atoms: C_38  and  C_40
REMARK   18  A    between atoms: C_40  and  C_41
REMARK   19  A    between atoms: C_40  and  N_49
REMARK   20  A    between atoms: C_41  and  C_42
REMARK   21  A    between atoms: C_50  and  CA_52
REMARK   22  A    between atoms: CA_52  and  C_53
REMARK   23  A    between atoms: CA_52  and  N_55
REMARK   24  A    between atoms: C_56  and  CA_58
REMARK   25  A    between atoms: CA_58  and  CB_59
REMARK   26  A    between atoms: CA_58  and  N_69
REMARK   27  A    between atoms: CB_59  and  CG_60
REMARK   28  A    between atoms: C_70  and  CA_72
REMARK   29  A    between atoms: CA_72  and  CB_73
REMARK   30  A    between atoms: CA_72  and  N_79
REMARK   31  A    between atoms: CB_73  and  CG_74
REMARK   32  A    between atoms: C_80  and  CA_82
REMARK                            x       y       z     vdW  Elec       q    Type
REMARK                         _______ _______ _______ _____ _____    ______ ____
ROOT
ATOM      1  C   UNL     1      46.557  80.836  40.617  0.00  0.00    +0.177 C 
ENDROOT
BRANCH   1   3
ATOM      2  N   UNL     1      47.694  82.560  42.134  0.00  0.00    -0.196 NA
ATOM      3  C   UNL     1      47.330  81.234  41.780  0.00  0.00    +0.262 C 
ATOM      4  O   UNL     1      47.739  80.322  42.580  0.00  0.00    -0.271 OA
BRANCH   2   5
ATOM      5  C   UNL     1      48.467  82.774  43.383  0.00  0.00    +0.173 C 
BRANCH   5   7
ATOM      6  N   UNL     1      50.204  81.257  44.538  0.00  0.00    -0.196 NA
ATOM      7  C   UNL     1      49.586  81.792  43.419  0.00  0.00    +0.262 C 
ATOM      8  O   UNL     1      50.002  81.426  42.253  0.00  0.00    -0.271 OA
BRANCH   6   9
ATOM      9  C   UNL     1      51.232  80.243  44.555  0.00  0.00    +0.173 C 
BRANCH   9  11
ATOM     10  N   UNL     1      53.040  79.840  46.360  0.00  0.00    -0.196 NA
ATOM     11  C   UNL     1      51.733  80.003  45.908  0.00  0.00    +0.262 C 
ATOM     12  O   UNL     1      50.822  79.930  46.817  0.00  0.00    -0.271 OA
BRANCH  10  13
ATOM     13  C   UNL     1      53.418  79.782  47.771  0.00  0.00    +0.171 C 
BRANCH  13  19
ATOM     14  C   UNL     1      56.348  81.012  49.895  0.00  0.00    +0.154 C 
ATOM     15  C   UNL     1      56.116  80.679  51.373  0.00  0.00    +0.031 C 
ATOM     16  C   UNL     1      54.977  81.603  51.688  0.00  0.00    +0.024 C 
ATOM     17  C   UNL     1      54.167  81.622  50.386  0.00  0.00    +0.094 C 
ATOM     18  N   UNL     1      55.002  81.012  49.379  0.00  0.00    -0.272 N 
ATOM     19  C   UNL     1      54.630  80.480  48.118  0.00  0.00    +0.246 C 
ATOM     20  O   UNL     1      55.489  80.637  47.173  0.00  0.00    -0.273 OA
BRANCH  14  22
ATOM     21  N   UNL     1      58.490  82.332  49.747  0.00  0.00    -0.204 NA
ATOM     22  C   UNL     1      57.102  82.254  49.716  0.00  0.00    +0.259 C 
ATOM     23  O   UNL     1      56.449  83.342  49.516  0.00  0.00    -0.272 OA
BRANCH  21  25
ATOM     24  C   UNL     1      60.635  83.299  49.079  0.00  0.00    +0.025 C 
ATOM     25  C   UNL     1      59.325  82.698  48.603  0.00  0.00    +0.115 C 
ENDBRANCH  21  25
ENDBRANCH  14  22
ENDBRANCH  13  19
BRANCH  13  26
ATOM     26  C   UNL     1      53.174  78.437  48.353  0.00  0.00    +0.033 C 
BRANCH  26  27
ATOM     27  C   UNL     1      51.945  78.132  49.066  0.00  0.00    +0.029 C 
BRANCH  27  28
ATOM     28  C   UNL     1      51.683  76.805  49.667  0.00  0.00    +0.129 C 
BRANCH  28  29
ATOM     29  N   UNL     1      50.538  76.552  50.373  0.00  0.00    -0.234 NA
ATOM     30  C   UNL     1      49.812  75.798  50.929  0.00  0.00    +0.284 C 
ATOM     31  N   UNL     1      49.975  74.367  50.741  0.00  0.00    -0.104 NA
ATOM     32  N   UNL     1      48.737  76.133  51.796  0.00  0.00    -0.104 NA
ENDBRANCH  28  29
ENDBRANCH  27  28
ENDBRANCH  26  27
ENDBRANCH  13  26
ENDBRANCH  10  13
ENDBRANCH   9  11
BRANCH   9  33
ATOM     33  C   UNL     1      50.987  79.026  43.743  0.00  0.00    +0.031 C 
BRANCH  33  34
ATOM     34  C   UNL     1      51.090  79.195  42.247  0.00  0.00    +0.002 C 
ATOM     35  C   UNL     1      50.850  77.970  41.436  0.00  0.00    +0.000 C 
ATOM     36  C   UNL     1      52.462  79.749  41.932  0.00  0.00    +0.000 C 
ENDBRANCH  33  34
ENDBRANCH   9  33
ENDBRANCH   6   9
ENDBRANCH   5   7
BRANCH   5  37
ATOM     37  C   UNL     1      48.844  84.156  43.645  0.00  0.00    +0.031 C 
BRANCH  37  38
ATOM     38  C   UNL     1      47.744  85.141  43.869  0.00  0.00    +0.002 C 
ATOM     39  C   UNL     1      46.912  84.932  45.098  0.00  0.00    +0.000 C 
ATOM     40  C   UNL     1      48.206  86.592  43.863  0.00  0.00    +0.000 C 
ENDBRANCH  37  38
ENDBRANCH   5  37
ENDBRANCH   2   5
ENDBRANCH   1   3
BRANCH   1  41
ATOM     41  N   UNL     1      45.523  79.865  40.827  0.00  0.00    -0.196 NA
ATOM     42  C   UNL     1      44.677  79.490  39.747  0.00  0.00    +0.264 C 
ATOM     43  O   UNL     1      44.859  79.996  38.600  0.00  0.00    -0.271 OA
BRANCH  42  44
ATOM     44  CA  UNL     1      43.553  78.504  39.860  0.00  0.00    +0.205 C 
BRANCH  44  45
ATOM     45  N   UNL     1      42.595  78.636  38.776  0.00  0.00    -0.194 NA
ATOM     46  C   UNL     1      41.429  77.825  38.792  0.00  0.00    +0.262 C 
ATOM     47  O   UNL     1      41.306  77.046  39.764  0.00  0.00    -0.271 OA
BRANCH  46  48
ATOM     48  CA  UNL     1      40.379  77.892  37.707  0.00  0.00    +0.177 C 
BRANCH  48  49
ATOM     49  N   UNL     1      40.585  76.841  36.764  0.00  0.00    -0.196 NA
ATOM     50  C   UNL     1      40.424  75.466  37.096  0.00  0.00    +0.262 C 
ATOM     51  O   UNL     1      41.460  74.815  37.384  0.00  0.00    -0.271 OA
BRANCH  50  52
ATOM     52  CA  UNL     1      39.138  74.772  37.113  0.00  0.00    +0.179 C 
BRANCH  52  53
ATOM     53  N   UNL     1      38.795  74.304  35.781  0.00  0.00    -0.196 NA
ATOM     54  C   UNL     1      37.574  74.496  35.126  0.00  0.00    +0.262 C 
ATOM     55  O   UNL     1      36.630  75.010  35.730  0.00  0.00    -0.271 OA
BRANCH  54  56
ATOM     56  CA  UNL     1      37.449  74.060  33.689  0.00  0.00    +0.173 C 
ATOM     57  C   UNL     1      38.266  75.046  32.857  0.00  0.00    +0.041 C 
ATOM     58  C   UNL     1      37.511  75.229  31.550  0.00  0.00    +0.089 C 
ATOM     59  C   UNL     1      36.262  74.459  31.791  0.00  0.00    +0.242 C 
ATOM     60  O   UNL     1      35.489  74.068  30.884  0.00  0.00    -0.273 OA
ATOM     61  N   UNL     1      36.106  74.246  33.182  0.00  0.00    -0.198 NA
ENDBRANCH  54  56
ENDBRANCH  52  53
BRANCH  52  62
ATOM     62  CB  UNL     1      38.947  73.723  38.155  0.00  0.00    +0.079 C 
BRANCH  62  63
ATOM     63  CG  UNL     1      38.310  72.483  37.753  0.00  0.00    +0.082 A 
ATOM     64  CD2 UNL     1      37.905  72.263  36.419  0.00  0.00    +0.115 A 
ATOM     65  NE2 UNL     1      37.345  71.048  36.346  0.00  0.00    -0.221 NA
ATOM     66  CE1 UNL     1      37.390  70.519  37.582  0.00  0.00    +0.199 A 
ATOM     67  ND1 UNL     1      37.969  71.376  38.427  0.00  0.00    -0.227 NA
ENDBRANCH  62  63
ENDBRANCH  52  62
ENDBRANCH  50  52
ENDBRANCH  48  49
BRANCH  48  68
ATOM     68  CB  UNL     1      39.064  78.107  38.344  0.00  0.00    +0.059 C 
BRANCH  68  69
ATOM     69  CG  UNL     1      37.947  78.498  37.475  0.00  0.00    +0.001 A 
ATOM     70  CD1 UNL     1      36.600  78.282  37.666  0.00  0.00    +0.095 A 
ATOM     71  NE1 UNL     1      35.927  78.846  36.654  0.00  0.00    -0.244 NA
ATOM     72  CE2 UNL     1      36.763  79.431  35.792  0.00  0.00    +0.081 A 
ATOM     73  CZ2 UNL     1      36.557  80.138  34.602  0.00  0.00    +0.019 A 
ATOM     74  CH2 UNL     1      37.608  80.650  33.882  0.00  0.00    +0.002 A 
ATOM     75  CZ3 UNL     1      38.875  80.434  34.391  0.00  0.00    +0.000 A 
ATOM     76  CE3 UNL     1      39.102  79.738  35.570  0.00  0.00    +0.001 A 
ATOM     77  CD2 UNL     1      38.039  79.231  36.279  0.00  0.00    +0.015 A 
ENDBRANCH  68  69
ENDBRANCH  48  68
ENDBRANCH  46  48
ENDBRANCH  44  45
BRANCH  44  78
ATOM     78  C   UNL     1      44.046  77.109  39.995  0.00  0.00    +0.213 C 
ATOM     79  O   UNL     1      45.211  76.990  39.212  0.00  0.00    -0.218 OA
ENDBRANCH  44  78
ENDBRANCH  42  44
ENDBRANCH   1  41
BRANCH   1  80
ATOM     80  C   UNL     1      47.417  80.434  39.445  0.00  0.00    +0.057 C 
BRANCH  80  81
ATOM     81  C   UNL     1      48.194  81.497  38.811  0.00  0.00    -0.020 A 
ATOM     82  C   UNL     1      49.548  81.688  39.049  0.00  0.00    -0.001 A 
ATOM     83  C   UNL     1      50.234  82.748  38.458  0.00  0.00    +0.042 A 
ATOM     84  C   UNL     1      49.561  83.612  37.628  0.00  0.00    +0.196 A 
ATOM     85  C   UNL     1      48.208  83.415  37.393  0.00  0.00    +0.042 A 
ATOM     86  C   UNL     1      47.522  82.381  37.968  0.00  0.00    -0.001 A 
ATOM     87  O   UNL     1      50.234  84.667  37.037  0.00  0.00    -0.287 OA
ENDBRANCH  80  81
ENDBRANCH   1  80
TORSDOF 32
