REMARK  Name = LEURUBICIN
REMARK  9 active torsions:
REMARK  status: ('A' for Active; 'I' for Inactive)
REMARK    1  A    between atoms: C_4  and  N_38
REMARK    2  A    between atoms: C_6  and  O_8
REMARK    3  A    between atoms: O_8  and  C_9
REMARK    4  A    between atoms: C_11  and  C_33
REMARK    5  A    between atoms: C_26  and  O_30
REMARK    6  A    between atoms: C_33  and  C_35
REMARK    7  A    between atoms: C_39  and  C_41
REMARK    8  A    between atoms: C_41  and  C_42
REMARK    9  A    between atoms: C_42  and  C_43
REMARK                            x       y       z     vdW  Elec       q    Type
REMARK                         _______ _______ _______ _____ _____    ______ ____
ROOT
ATOM      1  C   UNL     1      43.450  78.966  40.501  0.00  0.00    +0.146 C 
ATOM      2  C   UNL     1      43.150  77.869  41.533  0.00  0.00    +0.072 C 
ATOM      3  C   UNL     1      43.971  76.662  41.134  0.00  0.00    +0.186 C 
ATOM      4  C   UNL     1      45.344  76.990  40.651  0.00  0.00    +0.067 C 
ATOM      5  C   UNL     1      45.786  78.379  40.903  0.00  0.00    +0.021 A 
ATOM      6  C   UNL     1      44.846  79.384  40.826  0.00  0.00    +0.043 A 
ATOM      7  C   UNL     1      45.239  80.670  41.050  0.00  0.00    +0.197 A 
ATOM      8  C   UNL     1      46.572  80.958  41.353  0.00  0.00    +0.084 A 
ATOM      9  C   UNL     1      47.529  79.968  41.436  0.00  0.00    +0.084 A 
ATOM     10  C   UNL     1      47.123  78.666  41.207  0.00  0.00    +0.195 A 
ATOM     11  O   UNL     1      48.072  77.654  41.286  0.00  0.00    -0.287 OA
ATOM     12  C   UNL     1      48.923  80.268  41.753  0.00  0.00    +0.199 C 
ATOM     13  O   UNL     1      49.797  79.341  41.826  0.00  0.00    -0.286 OA
ATOM     14  C   UNL     1      49.353  81.640  41.994  0.00  0.00    +0.045 A 
ATOM     15  C   UNL     1      48.393  82.640  41.912  0.00  0.00    +0.076 A 
ATOM     16  C   UNL     1      47.002  82.335  41.595  0.00  0.00    +0.202 C 
ATOM     17  O   UNL     1      46.115  83.244  41.517  0.00  0.00    -0.286 OA
ATOM     18  C   UNL     1      48.757  83.953  42.133  0.00  0.00    +0.142 A 
ATOM     19  C   UNL     1      50.070  84.252  42.434  0.00  0.00    +0.037 A 
ATOM     20  C   UNL     1      51.039  83.264  42.519  0.00  0.00    +0.003 A 
ATOM     21  C   UNL     1      50.666  81.955  42.296  0.00  0.00    +0.003 A 
ATOM     22  O   UNL     1      44.292  81.681  40.971  0.00  0.00    -0.287 OA
ATOM     23  O   UNL     1      43.237  76.059  40.081  0.00  0.00    -0.218 OA
ENDROOT
BRANCH  18  24
ATOM     24  O   UNL     1      47.772  84.926  42.042  0.00  0.00    -0.471 OA
ATOM     25  C   UNL     1      47.954  86.113  42.791  0.00  0.00    +0.252 C 
ENDBRANCH  18  24
BRANCH   3  26
ATOM     26  C   UNL     1      44.033  75.684  42.262  0.00  0.00    +0.211 C 
ATOM     27  O   UNL     1      43.193  75.691  43.138  0.00  0.00    -0.291 OA
BRANCH  26  28
ATOM     28  C   UNL     1      45.124  74.686  42.331  0.00  0.00    +0.248 C 
ATOM     29  O   UNL     1      44.996  73.904  43.473  0.00  0.00    -0.212 OA
ENDBRANCH  26  28
ENDBRANCH   3  26
BRANCH   1  30
ATOM     30  O   UNL     1      43.463  78.354  39.260  0.00  0.00    -0.328 OA
BRANCH  30  36
ATOM     31  C   UNL     1      42.042  75.488  40.047  0.00  0.00    +0.035 C 
ATOM     32  C   UNL     1      40.933  76.421  39.604  0.00  0.00    +0.150 C 
ATOM     33  C   UNL     1      40.385  75.983  38.283  0.00  0.00    +0.199 C 
ATOM     34  C   UNL     1      41.001  76.663  37.099  0.00  0.00    +0.133 C 
ATOM     35  C   UNL     1      42.292  77.304  37.524  0.00  0.00    +0.086 C 
ATOM     36  C   UNL     1      42.181  78.170  38.733  0.00  0.00    +0.237 C 
ATOM     37  O   UNL     1      41.279  77.747  39.674  0.00  0.00    -0.330 OA
ATOM     38  O   UNL     1      40.583  74.587  38.197  0.00  0.00    -0.219 OA
BRANCH  34  39
ATOM     39  N   UNL     1      40.058  77.650  36.581  0.00  0.00    -0.203 NA
ATOM     40  C   UNL     1      39.229  77.261  35.503  0.00  0.00    +0.259 C 
ATOM     41  O   UNL     1      39.623  76.498  34.585  0.00  0.00    -0.272 OA
BRANCH  40  42
ATOM     42  C   UNL     1      37.841  77.761  35.430  0.00  0.00    +0.169 C 
ATOM     43  N   UNL     1      36.876  76.745  35.088  0.00  0.00    -0.123 NA
BRANCH  42  44
ATOM     44  C   UNL     1      37.687  79.014  34.638  0.00  0.00    +0.028 C 
BRANCH  44  45
ATOM     45  C   UNL     1      36.346  79.652  34.644  0.00  0.00    +0.002 C 
ATOM     46  C   UNL     1      36.264  80.953  33.876  0.00  0.00    +0.000 C 
ATOM     47  C   UNL     1      35.719  79.808  35.995  0.00  0.00    +0.000 C 
ENDBRANCH  44  45
ENDBRANCH  42  44
ENDBRANCH  40  42
ENDBRANCH  34  39
ENDBRANCH  30  36
ENDBRANCH   1  30
TORSDOF 9
