REMARK  Name = Levalbuterol
REMARK  5 active torsions:
REMARK  status: ('A' for Active; 'I' for Inactive)
REMARK    1  A    between atoms: C_2  and  N_5
REMARK    2  A    between atoms: N_5  and  C_6
REMARK    3  A    between atoms: C_6  and  C_7
REMARK    4  A    between atoms: C_7  and  C_8
REMARK    5  A    between atoms: C_10  and  C_15
REMARK                            x       y       z     vdW  Elec       q    Type
REMARK                         _______ _______ _______ _____ _____    ______ ____
ROOT
ATOM      1  C   UNL     1      47.080  81.461  41.194  0.00  0.00    +0.009 A 
ATOM      2  C   UNL     1      46.079  80.550  40.964  0.00  0.00    -0.000 A 
ATOM      3  C   UNL     1      45.309  80.595  39.796  0.00  0.00    +0.049 A 
ATOM      4  C   UNL     1      45.546  81.567  38.846  0.00  0.00    +0.194 A 
ATOM      5  C   UNL     1      46.548  82.491  39.058  0.00  0.00    +0.042 A 
ATOM      6  C   UNL     1      47.304  82.426  40.234  0.00  0.00    +0.001 A 
ATOM      7  O   UNL     1      44.755  81.574  37.700  0.00  0.00    -0.287 OA
ENDROOT
BRANCH   1   8
ATOM      8  C   UNL     1      47.939  81.482  42.413  0.00  0.00    +0.192 C 
ATOM      9  O   UNL     1      47.781  82.736  43.009  0.00  0.00    -0.217 OA
BRANCH   8  10
ATOM     10  C   UNL     1      49.372  81.252  42.140  0.00  0.00    +0.126 C 
BRANCH  10  11
ATOM     11  N   UNL     1      50.068  82.469  41.907  0.00  0.00    -0.218 NA
BRANCH  11  13
ATOM     12  C   UNL     1      49.188  84.061  43.553  0.00  0.00    +0.017 C 
ATOM     13  C   UNL     1      50.384  83.310  42.994  0.00  0.00    +0.060 C 
ATOM     14  C   UNL     1      50.819  82.344  44.138  0.00  0.00    +0.017 C 
ATOM     15  C   UNL     1      51.515  84.270  42.834  0.00  0.00    +0.017 C 
ENDBRANCH  11  13
ENDBRANCH  10  11
ENDBRANCH   8  10
ENDBRANCH   1   8
BRANCH   3  16
ATOM     16  C   UNL     1      44.247  79.610  39.573  0.00  0.00    +0.212 C 
ATOM     17  O   UNL     1      44.753  78.533  38.846  0.00  0.00    -0.215 OA
ENDBRANCH   3  16
TORSDOF 5
