REMARK  Name = Levetiracetam
REMARK  3 active torsions:
REMARK  status: ('A' for Active; 'I' for Inactive)
REMARK    1  A    between atoms: C_2  and  C_3
REMARK    2  A    between atoms: C_3  and  C_4
REMARK    3  A    between atoms: C_3  and  N_7
REMARK                            x       y       z     vdW  Elec       q    Type
REMARK                         _______ _______ _______ _____ _____    ______ ____
ROOT
ATOM      1  C   UNL     1      46.765  81.258  40.072  0.00  0.00    +0.155 C 
ENDROOT
BRANCH   1   2
ATOM      2  N   UNL     1      45.932  80.109  40.309  0.00  0.00    -0.273 N 
ATOM      3  C   UNL     1      44.468  80.150  40.256  0.00  0.00    +0.094 C 
ATOM      4  C   UNL     1      44.183  78.758  39.733  0.00  0.00    +0.031 C 
ATOM      5  C   UNL     1      45.082  77.960  40.688  0.00  0.00    +0.087 C 
ATOM      6  C   UNL     1      46.316  78.778  40.623  0.00  0.00    +0.226 C 
ATOM      7  O   UNL     1      47.473  78.350  40.815  0.00  0.00    -0.275 OA
ENDBRANCH   1   2
BRANCH   1   8
ATOM      8  C   UNL     1      46.298  82.007  38.882  0.00  0.00    +0.279 C 
ATOM      9  O   UNL     1      45.055  81.923  38.614  0.00  0.00    -0.270 OA
ATOM     10  N   UNL     1      47.113  82.785  38.048  0.00  0.00    -0.086 NA
ENDBRANCH   1   8
BRANCH   1  12
ATOM     11  C   UNL     1      47.447  81.588  42.449  0.00  0.00    +0.002 C 
ATOM     12  C   UNL     1      46.708  82.200  41.281  0.00  0.00    +0.029 C 
ENDBRANCH   1  12
TORSDOF 3
