REMARK  Name = Levomethadyl_Acetate
REMARK  9 active torsions:
REMARK  status: ('A' for Active; 'I' for Inactive)
REMARK    1  A    between atoms: C_2  and  C_3
REMARK    2  A    between atoms: C_3  and  C_4
REMARK    3  A    between atoms: C_3  and  O_23
REMARK    4  A    between atoms: C_4  and  C_5
REMARK    5  A    between atoms: C_4  and  C_11
REMARK    6  A    between atoms: C_4  and  C_17
REMARK    7  A    between atoms: C_5  and  C_6
REMARK    8  A    between atoms: C_6  and  N_8
REMARK    9  A    between atoms: O_23  and  C_24
REMARK                            x       y       z     vdW  Elec       q    Type
REMARK                         _______ _______ _______ _____ _____    ______ ____
ROOT
ATOM      1  C   UNL     1      47.648  80.674  41.166  0.00  0.00    +0.076 C 
ENDROOT
BRANCH   1   2
ATOM      2  C   UNL     1      47.897  81.934  42.043  0.00  0.00    -0.016 A 
ATOM      3  C   UNL     1      48.935  82.784  41.816  0.00  0.00    -0.004 A 
ATOM      4  C   UNL     1      49.035  83.889  42.681  0.00  0.00    -0.000 A 
ATOM      5  C   UNL     1      48.151  84.122  43.704  0.00  0.00    -0.000 A 
ATOM      6  C   UNL     1      47.103  83.223  43.898  0.00  0.00    -0.000 A 
ATOM      7  C   UNL     1      46.976  82.130  43.068  0.00  0.00    -0.004 A 
ENDBRANCH   1   2
BRANCH   1   8
ATOM      8  C   UNL     1      49.038  80.039  41.357  0.00  0.00    -0.016 A 
ATOM      9  C   UNL     1      49.452  78.984  40.567  0.00  0.00    -0.004 A 
ATOM     10  C   UNL     1      50.674  78.375  40.715  0.00  0.00    -0.000 A 
ATOM     11  C   UNL     1      51.541  78.799  41.668  0.00  0.00    -0.000 A 
ATOM     12  C   UNL     1      51.155  79.846  42.468  0.00  0.00    -0.000 A 
ATOM     13  C   UNL     1      49.922  80.449  42.308  0.00  0.00    -0.004 A 
ENDBRANCH   1   8
BRANCH   1  14
ATOM     14  C   UNL     1      47.496  81.274  39.847  0.00  0.00    +0.176 C 
BRANCH  14  16
ATOM     15  C   UNL     1      48.405  83.044  38.247  0.00  0.00    +0.004 C 
ATOM     16  C   UNL     1      48.608  81.749  38.986  0.00  0.00    +0.044 C 
ENDBRANCH  14  16
BRANCH  14  17
ATOM     17  O   UNL     1      46.616  80.474  39.021  0.00  0.00    -0.452 OA
BRANCH  17  18
ATOM     18  C   UNL     1      45.559  80.958  38.331  0.00  0.00    +0.317 C 
ATOM     19  O   UNL     1      45.318  82.206  38.356  0.00  0.00    -0.250 OA
ATOM     20  C   UNL     1      44.636  80.084  37.517  0.00  0.00    +0.121 C 
ENDBRANCH  17  18
ENDBRANCH  14  17
ENDBRANCH   1  14
BRANCH   1  21
ATOM     21  C   UNL     1      46.631  79.925  41.882  0.00  0.00    +0.028 C 
BRANCH  21  22
ATOM     22  C   UNL     1      45.885  78.745  41.531  0.00  0.00    +0.058 C 
ATOM     23  C   UNL     1      46.223  77.415  42.131  0.00  0.00    +0.017 C 
BRANCH  22  24
ATOM     24  N   UNL     1      44.526  78.942  42.179  0.00  0.00    -0.272 NA
ATOM     25  C   UNL     1      43.611  79.564  41.283  0.00  0.00    +0.090 C 
ATOM     26  C   UNL     1      44.037  77.708  42.702  0.00  0.00    +0.090 C 
ENDBRANCH  22  24
ENDBRANCH  21  22
ENDBRANCH   1  21
TORSDOF 9
