REMARK  Name = Levopropoxyphene_Napsylate_Anhydrous
REMARK  10 active torsions:
REMARK  status: ('A' for Active; 'I' for Inactive)
REMARK    1  A    between atoms: C_2  and  C_3
REMARK    2  A    between atoms: C_3  and  O_5
REMARK    3  A    between atoms: O_5  and  C_6
REMARK    4  A    between atoms: C_6  and  C_7
REMARK    5  A    between atoms: C_6  and  C_14
REMARK    6  A    between atoms: C_6  and  C_20
REMARK    7  A    between atoms: C_7  and  C_8
REMARK    8  A    between atoms: C_20  and  C_22
REMARK    9  A    between atoms: C_22  and  N_23
REMARK   10  A    between atoms: C_31  and  S_36
REMARK                            x       y       z     vdW  Elec       q    Type
REMARK                         _______ _______ _______ _____ _____    ______ ____
ROOT
ATOM      1  C   UNL     1      47.270  80.781  40.998  0.00  0.00    +0.160 C 
ENDROOT
BRANCH   1   2
ATOM      2  C   UNL     1      47.093  79.415  41.560  0.00  0.00    +0.014 A 
ATOM      3  C   UNL     1      47.654  78.335  40.911  0.00  0.00    -0.001 A 
ATOM      4  C   UNL     1      47.486  77.058  41.407  0.00  0.00    -0.000 A 
ATOM      5  C   UNL     1      46.757  76.850  42.553  0.00  0.00    -0.000 A 
ATOM      6  C   UNL     1      46.177  77.891  43.237  0.00  0.00    -0.000 A 
ATOM      7  C   UNL     1      46.373  79.171  42.697  0.00  0.00    -0.001 A 
ENDBRANCH   1   2
BRANCH   1   8
ATOM      8  C   UNL     1      46.012  80.987  40.080  0.00  0.00    +0.057 C 
ATOM      9  C   UNL     1      46.538  80.554  38.680  0.00  0.00    +0.005 C 
BRANCH   8  10
ATOM     10  C   UNL     1      44.975  79.912  40.354  0.00  0.00    +0.076 C 
BRANCH  10  11
ATOM     11  N   UNL     1      43.744  79.879  39.760  0.00  0.00    -0.270 NA
ATOM     12  C   UNL     1      43.544  80.150  38.388  0.00  0.00    +0.090 C 
ATOM     13  C   UNL     1      42.861  78.834  40.235  0.00  0.00    +0.090 C 
ENDBRANCH  10  11
ENDBRANCH   8  10
ENDBRANCH   1   8
BRANCH   1  14
ATOM     14  O   UNL     1      47.049  81.848  41.829  0.00  0.00    -0.451 OA
BRANCH  14  15
ATOM     15  C   UNL     1      47.830  82.659  42.570  0.00  0.00    +0.317 C 
ATOM     16  O   UNL     1      49.054  82.455  42.438  0.00  0.00    -0.250 OA
BRANCH  15  18
ATOM     17  C   UNL     1      48.361  84.812  43.582  0.00  0.00    +0.012 C 
ATOM     18  C   UNL     1      47.302  83.728  43.487  0.00  0.00    +0.110 C 
ENDBRANCH  15  18
ENDBRANCH  14  15
ENDBRANCH   1  14
BRANCH   1  19
ATOM     19  C   UNL     1      48.517  80.932  40.195  0.00  0.00    +0.071 C 
BRANCH  19  20
ATOM     20  C   UNL     1      49.536  81.792  40.828  0.00  0.00    -0.018 A 
ATOM     21  C   UNL     1      50.608  81.362  41.538  0.00  0.00    -0.004 A 
ATOM     22  C   UNL     1      51.534  82.239  42.106  0.00  0.00    -0.000 A 
ATOM     23  C   UNL     1      51.370  83.579  41.953  0.00  0.00    -0.000 A 
ATOM     24  C   UNL     1      50.294  84.052  41.239  0.00  0.00    -0.000 A 
ATOM     25  C   UNL     1      49.394  83.178  40.687  0.00  0.00    -0.004 A 
ENDBRANCH  19  20
ENDBRANCH   1  19
TORSDOF 9
REMARK  Name = Levopropoxyphene_Napsylate_Anhydrous
REMARK  10 active torsions:
REMARK  status: ('A' for Active; 'I' for Inactive)
REMARK    1  A    between atoms: C_2  and  C_3
REMARK    2  A    between atoms: C_3  and  O_5
REMARK    3  A    between atoms: O_5  and  C_6
REMARK    4  A    between atoms: C_6  and  C_7
REMARK    5  A    between atoms: C_6  and  C_14
REMARK    6  A    between atoms: C_6  and  C_20
REMARK    7  A    between atoms: C_7  and  C_8
REMARK    8  A    between atoms: C_20  and  C_22
REMARK    9  A    between atoms: C_22  and  N_23
REMARK   10  A    between atoms: C_31  and  S_36
REMARK                            x       y       z     vdW  Elec       q    Type
REMARK                         _______ _______ _______ _____ _____    ______ ____
ROOT
ATOM      1  C   UNL     1      45.962  82.081  37.805  0.00  0.00    +0.000 A 
ATOM      2  C   UNL     1      46.607  83.116  38.450  0.00  0.00    +0.000 A 
ATOM      3  C   UNL     1      47.227  82.886  39.661  0.00  0.00    +0.000 A 
ATOM      4  C   UNL     1      47.239  81.647  40.279  0.00  0.00    +0.001 A 
ATOM      5  C   UNL     1      47.867  81.438  41.492  0.00  0.00    +0.021 A 
ATOM      6  C   UNL     1      47.881  80.204  42.110  0.00  0.00    +0.136 A 
ATOM      7  C   UNL     1      47.233  79.175  41.457  0.00  0.00    +0.021 A 
ATOM      8  C   UNL     1      46.604  79.377  40.244  0.00  0.00    +0.001 A 
ATOM      9  C   UNL     1      46.595  80.613  39.633  0.00  0.00    +0.000 A 
ATOM     10  C   UNL     1      45.971  80.836  38.419  0.00  0.00    +0.000 A 
ENDROOT
BRANCH   6  11
ATOM     11  S   UNL     1      48.676  79.935  43.650  0.00  0.00    +0.141 S 
ATOM     12  O   UNL     1      47.968  78.910  44.469  0.00  0.00    -0.140 OA
ATOM     13  O   UNL     1      50.091  79.473  43.452  0.00  0.00    -0.140 OA
ATOM     14  O   UNL     1      48.726  81.354  44.540  0.00  0.00    -0.043 OA
ENDBRANCH   6  11
TORSDOF 1
