REMARK  Name = Levormeloxifene
REMARK  7 active torsions:
REMARK  status: ('A' for Active; 'I' for Inactive)
REMARK    1  A    between atoms: C_3  and  C_28
REMARK    2  A    between atoms: C_4  and  C_14
REMARK    3  A    between atoms: C_9  and  O_12
REMARK    4  A    between atoms: C_17  and  O_20
REMARK    5  A    between atoms: O_20  and  C_21
REMARK    6  A    between atoms: C_21  and  C_22
REMARK    7  A    between atoms: C_22  and  N_23
REMARK                            x       y       z     vdW  Elec       q    Type
REMARK                         _______ _______ _______ _____ _____    ______ ____
ROOT
ATOM      1  C   UNL     1      47.002  84.327  40.816  0.00  0.00    +0.044 C 
ATOM      2  C   UNL     1      47.094  83.011  40.106  0.00  0.00    +0.137 C 
ATOM      3  C   UNL     1      48.123  82.076  40.641  0.00  0.00    +0.067 C 
ATOM      4  C   UNL     1      47.508  80.954  41.426  0.00  0.00    +0.055 C 
ATOM      5  C   UNL     1      46.553  80.233  40.562  0.00  0.00    +0.016 A 
ATOM      6  C   UNL     1      45.675  81.030  39.829  0.00  0.00    +0.138 A 
ATOM      7  O   UNL     1      45.805  82.396  39.997  0.00  0.00    -0.482 OA
ATOM      8  C   UNL     1      44.766  80.403  39.010  0.00  0.00    +0.073 A 
ATOM      9  C   UNL     1      44.695  79.034  38.893  0.00  0.00    +0.142 A 
ATOM     10  C   UNL     1      45.570  78.270  39.625  0.00  0.00    +0.037 A 
ATOM     11  C   UNL     1      46.499  78.868  40.459  0.00  0.00    +0.002 A 
ATOM     12  C   UNL     1      47.480  83.338  38.655  0.00  0.00    +0.044 C 
ENDROOT
BRANCH   4  13
ATOM     13  C   UNL     1      48.480  80.005  41.969  0.00  0.00    -0.018 A 
ATOM     14  C   UNL     1      48.766  80.079  43.317  0.00  0.00    -0.001 A 
ATOM     15  C   UNL     1      49.666  79.240  43.934  0.00  0.00    +0.037 A 
ATOM     16  C   UNL     1      50.321  78.279  43.196  0.00  0.00    +0.139 A 
ATOM     17  C   UNL     1      50.040  78.198  41.845  0.00  0.00    +0.037 A 
ATOM     18  C   UNL     1      49.133  79.046  41.234  0.00  0.00    -0.001 A 
BRANCH  16  19
ATOM     19  O   UNL     1      51.215  77.453  43.833  0.00  0.00    -0.474 OA
BRANCH  19  20
ATOM     20  C   UNL     1      51.227  76.067  43.764  0.00  0.00    +0.223 C 
BRANCH  20  21
ATOM     21  C   UNL     1      52.273  75.372  44.553  0.00  0.00    +0.120 C 
BRANCH  21  22
ATOM     22  N   UNL     1      52.028  73.964  44.639  0.00  0.00    -0.270 NA
ATOM     23  C   UNL     1      52.072  73.297  43.387  0.00  0.00    +0.072 C 
ATOM     24  C   UNL     1      52.100  71.814  43.786  0.00  0.00    +0.019 C 
ATOM     25  C   UNL     1      53.050  71.881  44.962  0.00  0.00    +0.019 C 
ATOM     26  C   UNL     1      52.955  73.280  45.486  0.00  0.00    +0.072 C 
ENDBRANCH  21  22
ENDBRANCH  20  21
ENDBRANCH  19  20
ENDBRANCH  16  19
ENDBRANCH   4  13
BRANCH   3  27
ATOM     27  C   UNL     1      49.106  82.848  41.434  0.00  0.00    -0.018 A 
ATOM     28  C   UNL     1      50.453  82.753  41.102  0.00  0.00    -0.004 A 
ATOM     29  C   UNL     1      51.410  83.421  41.792  0.00  0.00    -0.000 A 
ATOM     30  C   UNL     1      51.025  84.214  42.848  0.00  0.00    -0.000 A 
ATOM     31  C   UNL     1      49.711  84.331  43.201  0.00  0.00    -0.000 A 
ATOM     32  C   UNL     1      48.748  83.648  42.495  0.00  0.00    -0.004 A 
ENDBRANCH   3  27
BRANCH   9  33
ATOM     33  O   UNL     1      43.785  78.411  38.075  0.00  0.00    -0.471 OA
ATOM     34  C   UNL     1      42.380  78.431  38.326  0.00  0.00    +0.252 C 
ENDBRANCH   9  33
TORSDOF 7
