REMARK  Name = Levosimendan
REMARK  5 active torsions:
REMARK  status: ('A' for Active; 'I' for Inactive)
REMARK    1  A    between atoms: C_8  and  C_9
REMARK    2  A    between atoms: C_12  and  N_15
REMARK    3  A    between atoms: N_15  and  N_16
REMARK    4  A    between atoms: C_17  and  C_18
REMARK    5  A    between atoms: C_17  and  C_20
REMARK                            x       y       z     vdW  Elec       q    Type
REMARK                         _______ _______ _______ _____ _____    ______ ____
ROOT
ATOM      1  C   UNL     1      46.662  80.650  40.543  0.00  0.00    +0.015 A 
ATOM      2  C   UNL     1      46.978  82.066  40.493  0.00  0.00    +0.003 A 
ATOM      3  C   UNL     1      48.092  82.499  41.128  0.00  0.00    +0.018 A 
ATOM      4  C   UNL     1      48.977  81.669  41.843  0.00  0.00    +0.092 A 
ATOM      5  C   UNL     1      48.681  80.332  41.891  0.00  0.00    +0.018 A 
ATOM      6  C   UNL     1      47.528  79.894  41.232  0.00  0.00    +0.003 A 
ENDROOT
BRANCH   1  14
ATOM      7  C   UNL     1      43.883  78.978  41.433  0.00  0.00    +0.007 C 
ATOM      8  C   UNL     1      44.800  78.915  40.221  0.00  0.00    +0.051 C 
ATOM      9  C   UNL     1      44.018  78.370  39.057  0.00  0.00    +0.095 C 
ATOM     10  C   UNL     1      43.109  79.480  38.600  0.00  0.00    +0.263 C 
ATOM     11  O   UNL     1      41.852  79.321  38.512  0.00  0.00    -0.271 OA
ATOM     12  N   UNL     1      43.745  80.669  38.285  0.00  0.00    -0.080 NA
ATOM     13  N   UNL     1      44.931  80.986  38.976  0.00  0.00    -0.161 NA
ATOM     14  C   UNL     1      45.435  80.185  39.882  0.00  0.00    +0.078 C 
ENDBRANCH   1  14
BRANCH   4  15
ATOM     15  N   UNL     1      50.064  82.270  42.532  0.00  0.00    -0.116 NA
BRANCH  15  16
ATOM     16  N   UNL     1      50.575  83.531  42.072  0.00  0.00    -0.138 NA
ATOM     17  C   UNL     1      51.736  83.811  42.638  0.00  0.00    +0.236 C 
BRANCH  17  18
ATOM     18  C   UNL     1      52.928  83.628  42.213  0.00  0.00    +0.132 C 
ATOM     19  N   UNL     1      54.129  83.452  41.806  0.00  0.00    -0.188 NA
ENDBRANCH  17  18
BRANCH  17  20
ATOM     20  C   UNL     1      51.464  84.483  43.925  0.00  0.00    +0.132 C 
ATOM     21  N   UNL     1      51.224  85.074  45.014  0.00  0.00    -0.188 NA
ENDBRANCH  17  20
ENDBRANCH  15  16
ENDBRANCH   4  15
TORSDOF 5
