REMARK  Name = Levobetaxolol
REMARK  11 active torsions:
REMARK  status: ('A' for Active; 'I' for Inactive)
REMARK    1  A    between atoms: C_2  and  N_4
REMARK    2  A    between atoms: N_4  and  C_5
REMARK    3  A    between atoms: C_5  and  C_6
REMARK    4  A    between atoms: C_6  and  C_7
REMARK    5  A    between atoms: C_7  and  O_8
REMARK    6  A    between atoms: O_8  and  C_9
REMARK    7  A    between atoms: C_12  and  C_15
REMARK    8  A    between atoms: C_15  and  C_16
REMARK    9  A    between atoms: C_16  and  O_17
REMARK   10  A    between atoms: O_17  and  C_18
REMARK   11  A    between atoms: C_18  and  C_19
REMARK                            x       y       z     vdW  Elec       q    Type
REMARK                         _______ _______ _______ _____ _____    ______ ____
ROOT
ATOM      1  C   UNL     1      44.205  79.744  39.906  0.00  0.00    +0.139 A 
ATOM      2  C   UNL     1      45.074  79.609  40.967  0.00  0.00    +0.037 A 
ATOM      3  C   UNL     1      46.148  80.465  41.123  0.00  0.00    -0.001 A 
ATOM      4  C   UNL     1      46.397  81.489  40.229  0.00  0.00    -0.019 A 
ATOM      5  C   UNL     1      45.525  81.623  39.168  0.00  0.00    -0.001 A 
ATOM      6  C   UNL     1      44.449  80.764  39.011  0.00  0.00    +0.037 A 
ENDROOT
BRANCH   1   7
ATOM      7  O   UNL     1      43.112  78.877  39.742  0.00  0.00    -0.473 OA
BRANCH   7   8
ATOM      8  C   UNL     1      42.582  78.559  38.492  0.00  0.00    +0.240 C 
BRANCH   8   9
ATOM      9  C   UNL     1      41.449  77.582  38.691  0.00  0.00    +0.213 C 
ATOM     10  O   UNL     1      40.392  78.234  39.279  0.00  0.00    -0.218 OA
BRANCH   9  11
ATOM     11  C   UNL     1      41.066  76.880  37.408  0.00  0.00    +0.125 C 
BRANCH  11  12
ATOM     12  N   UNL     1      39.925  76.037  37.703  0.00  0.00    -0.217 NA
BRANCH  12  14
ATOM     13  C   UNL     1      38.341  74.487  36.689  0.00  0.00    +0.019 C 
ATOM     14  C   UNL     1      39.507  75.409  36.469  0.00  0.00    +0.073 C 
ATOM     15  C   UNL     1      40.610  74.652  35.801  0.00  0.00    +0.019 C 
ENDBRANCH  12  14
ENDBRANCH  11  12
ENDBRANCH   9  11
ENDBRANCH   8   9
ENDBRANCH   7   8
ENDBRANCH   1   7
BRANCH   4  16
ATOM     16  C   UNL     1      47.556  82.401  40.413  0.00  0.00    +0.058 C 
BRANCH  16  17
ATOM     17  C   UNL     1      47.827  82.644  41.895  0.00  0.00    +0.147 C 
BRANCH  17  18
ATOM     18  O   UNL     1      48.830  83.578  42.026  0.00  0.00    -0.353 OA
BRANCH  18  19
ATOM     19  C   UNL     1      49.167  83.723  43.364  0.00  0.00    +0.142 C 
BRANCH  19  20
ATOM     20  C   UNL     1      50.672  83.586  43.505  0.00  0.00    +0.030 C 
ATOM     21  C   UNL     1      51.495  83.653  42.233  0.00  0.00    +0.003 C 
ATOM     22  C   UNL     1      51.510  84.767  43.213  0.00  0.00    +0.003 C 
ENDBRANCH  19  20
ENDBRANCH  18  19
ENDBRANCH  17  18
ENDBRANCH  16  17
ENDBRANCH   4  16
TORSDOF 11
