REMARK  Name = Levorphanol
REMARK  0 active torsions:
REMARK  status: ('A' for Active; 'I' for Inactive)
REMARK                            x       y       z     vdW  Elec       q    Type
REMARK                         _______ _______ _______ _____ _____    ______ ____
ROOT
ATOM      1  C   UNL     1      51.114  80.108  42.830  0.00  0.00    +0.090 C 
ATOM      2  N   UNL     1      50.371  81.366  42.744  0.00  0.00    -0.272 NA
ATOM      3  C   UNL     1      50.606  81.979  41.479  0.00  0.00    +0.072 C 
ATOM      4  C   UNL     1      49.619  82.965  41.018  0.00  0.00    +0.021 C 
ATOM      5  C   UNL     1      48.266  82.940  41.664  0.00  0.00    +0.021 C 
ATOM      6  C   UNL     1      47.618  84.283  41.652  0.00  0.00    +0.004 C 
ATOM      7  C   UNL     1      48.071  85.254  42.667  0.00  0.00    +0.000 C 
ATOM      8  C   UNL     1      48.538  84.723  43.972  0.00  0.00    +0.000 C 
ATOM      9  C   UNL     1      49.027  83.311  43.947  0.00  0.00    +0.002 C 
ATOM     10  C   UNL     1      48.242  82.402  43.054  0.00  0.00    +0.019 C 
ATOM     11  C   UNL     1      48.996  81.074  43.028  0.00  0.00    +0.062 C 
ATOM     12  C   UNL     1      48.383  80.065  42.130  0.00  0.00    +0.042 C 
ATOM     13  C   UNL     1      47.492  80.654  41.089  0.00  0.00    -0.025 A 
ATOM     14  C   UNL     1      47.413  82.006  40.844  0.00  0.00    -0.023 A 
ATOM     15  C   UNL     1      46.594  82.539  39.888  0.00  0.00    +0.037 A 
ATOM     16  C   UNL     1      45.808  81.662  39.135  0.00  0.00    +0.195 A 
ATOM     17  C   UNL     1      45.880  80.305  39.373  0.00  0.00    +0.042 A 
ATOM     18  C   UNL     1      46.711  79.795  40.339  0.00  0.00    -0.001 A 
ATOM     19  O   UNL     1      44.981  82.212  38.169  0.00  0.00    -0.287 OA
ENDROOT
TORSDOF 0
