REMARK  Name = Levocetirizine_dihydrochloride
REMARK  8 active torsions:
REMARK  status: ('A' for Active; 'I' for Inactive)
REMARK    1  A    between atoms: N_3  and  C_14
REMARK    2  A    between atoms: N_6  and  C_7
REMARK    3  A    between atoms: C_7  and  C_8
REMARK    4  A    between atoms: C_8  and  O_9
REMARK    5  A    between atoms: O_9  and  C_10
REMARK    6  A    between atoms: C_10  and  C_11
REMARK    7  A    between atoms: C_14  and  C_15
REMARK    8  A    between atoms: C_14  and  C_21
REMARK                            x       y       z     vdW  Elec       q    Type
REMARK                         _______ _______ _______ _____ _____    ______ ____
ROOT
ATOM      1  C   UNL     1      48.217  82.126  42.164  0.00  0.00    +0.103 C 
ENDROOT
BRANCH   1   2
ATOM      2  C   UNL     1      49.641  82.145  41.745  0.00  0.00    -0.004 A 
ATOM      3  C   UNL     1      50.643  81.706  42.600  0.00  0.00    -0.002 A 
ATOM      4  C   UNL     1      51.972  81.720  42.229  0.00  0.00    +0.011 A 
ATOM      5  C   UNL     1      52.359  82.171  40.992  0.00  0.00    +0.058 A 
ATOM      6  C   UNL     1      51.383  82.612  40.127  0.00  0.00    +0.011 A 
ATOM      7  C   UNL     1      50.048  82.592  40.513  0.00  0.00    -0.002 A 
ATOM      8 CL   UNL     1      54.068  82.187  40.523  0.00  0.00    -0.082 Cl
ENDBRANCH   1   2
BRANCH   1  11
ATOM      9  C   UNL     1      46.406  79.496  40.431  0.00  0.00    +0.090 C 
ATOM     10  C   UNL     1      47.657  80.318  40.677  0.00  0.00    +0.090 C 
ATOM     11  N   UNL     1      47.361  81.611  41.198  0.00  0.00    -0.264 NA
ATOM     12  C   UNL     1      46.451  82.390  40.486  0.00  0.00    +0.090 C 
ATOM     13  C   UNL     1      45.261  81.564  39.989  0.00  0.00    +0.090 C 
ATOM     14  N   UNL     1      45.217  80.292  40.630  0.00  0.00    -0.268 NA
BRANCH  14  15
ATOM     15  C   UNL     1      43.985  79.628  40.453  0.00  0.00    +0.105 C 
BRANCH  15  16
ATOM     16  C   UNL     1      43.804  79.221  39.019  0.00  0.00    +0.160 C 
BRANCH  16  17
ATOM     17  O   UNL     1      42.572  78.547  38.836  0.00  0.00    -0.341 OA
BRANCH  17  18
ATOM     18  C   UNL     1      42.529  78.225  37.481  0.00  0.00    +0.257 C 
BRANCH  18  19
ATOM     19  C   UNL     1      41.284  77.494  37.129  0.00  0.00    +0.394 C 
ATOM     20  O   UNL     1      40.414  77.223  37.976  0.00  0.00    -0.243 OA
ATOM     21  O   UNL     1      41.104  77.112  35.816  0.00  0.00    -0.243 OA
ENDBRANCH  18  19
ENDBRANCH  17  18
ENDBRANCH  16  17
ENDBRANCH  15  16
ENDBRANCH  14  15
ENDBRANCH   1  11
BRANCH   1  22
ATOM     22  C   UNL     1      47.879  83.426  42.755  0.00  0.00    -0.004 A 
ATOM     23  C   UNL     1      48.849  84.410  42.789  0.00  0.00    -0.003 A 
ATOM     24  C   UNL     1      48.658  85.664  43.328  0.00  0.00    -0.000 A 
ATOM     25  C   UNL     1      47.420  85.941  43.862  0.00  0.00    -0.000 A 
ATOM     26  C   UNL     1      46.441  84.984  43.842  0.00  0.00    -0.000 A 
ATOM     27  C   UNL     1      46.655  83.736  43.297  0.00  0.00    -0.003 A 
ENDBRANCH   1  22
TORSDOF 8
REMARK  Name = Levocetirizine_dihydrochloride
REMARK  8 active torsions:
REMARK  status: ('A' for Active; 'I' for Inactive)
REMARK    1  A    between atoms: N_3  and  C_14
REMARK    2  A    between atoms: N_6  and  C_7
REMARK    3  A    between atoms: C_7  and  C_8
REMARK    4  A    between atoms: C_8  and  O_9
REMARK    5  A    between atoms: O_9  and  C_10
REMARK    6  A    between atoms: C_10  and  C_11
REMARK    7  A    between atoms: C_14  and  C_15
REMARK    8  A    between atoms: C_14  and  C_21
REMARK                            x       y       z     vdW  Elec       q    Type
REMARK                         _______ _______ _______ _____ _____    ______ ____
ROOT
ATOM      1 CL   UNL     1      46.275  81.025  40.409  0.00  0.00    +0.000 Cl
ENDROOT
TORSDOF 0
REMARK  Name = Levocetirizine_dihydrochloride
REMARK  8 active torsions:
REMARK  status: ('A' for Active; 'I' for Inactive)
REMARK    1  A    between atoms: N_3  and  C_14
REMARK    2  A    between atoms: N_6  and  C_7
REMARK    3  A    between atoms: C_7  and  C_8
REMARK    4  A    between atoms: C_8  and  O_9
REMARK    5  A    between atoms: O_9  and  C_10
REMARK    6  A    between atoms: C_10  and  C_11
REMARK    7  A    between atoms: C_14  and  C_15
REMARK    8  A    between atoms: C_14  and  C_21
REMARK                            x       y       z     vdW  Elec       q    Type
REMARK                         _______ _______ _______ _____ _____    ______ ____
ROOT
ATOM      1 CL   UNL     1      46.281  81.029  40.413  0.00  0.00    +0.000 Cl
ENDROOT
TORSDOF 0
