REMARK  Name = Levoleucovorin
REMARK  9 active torsions:
REMARK  status: ('A' for Active; 'I' for Inactive)
REMARK    1  A    between atoms: C_2  and  C_15
REMARK    2  A    between atoms: C_15  and  N_16
REMARK    3  A    between atoms: N_16  and  C_17
REMARK    4  A    between atoms: C_20  and  C_23
REMARK    5  A    between atoms: N_25  and  CA_26
REMARK    6  A    between atoms: CA_26  and  CB_27
REMARK    7  A    between atoms: CA_26  and  C_32
REMARK    8  A    between atoms: CB_27  and  CG_28
REMARK    9  A    between atoms: CG_28  and  CD_29
REMARK                            x       y       z     vdW  Elec       q    Type
REMARK                         _______ _______ _______ _____ _____    ______ ____
ROOT
ATOM      1  C   UNK A   0      44.495  75.577  41.059  0.00  0.00    +0.065 A 
ATOM      2  C   UNK A   0      45.270  74.600  40.446  0.00  0.00    +0.016 A 
ATOM      3  C   UNK A   0      45.462  73.366  41.048  0.00  0.00    +0.006 A 
ATOM      4  C   UNK A   0      44.900  73.052  42.267  0.00  0.00    +0.055 A 
ATOM      5  C   UNK A   0      44.136  74.030  42.861  0.00  0.00    +0.006 A 
ATOM      6  C   UNK A   0      43.933  75.267  42.275  0.00  0.00    +0.016 A 
ENDROOT
BRANCH   4   7
ATOM      7  C   UNK A   0      45.108  71.747  42.874  0.00  0.00    +0.265 C 
ATOM      8  O   UNK A   0      44.309  71.375  43.797  0.00  0.00    -0.268 OA
ATOM      9  N   GLU A   1      46.125  70.855  42.523  0.00  0.00    -0.192 NA
BRANCH   9  10
ATOM     10  CA  GLU A   1      46.298  69.517  43.110  0.00  0.00    +0.199 C 
BRANCH  10  11
ATOM     11  C   GLU A   1      47.045  68.633  42.242  0.00  0.00    +0.384 C 
ATOM     12  O   GLU A   1      47.466  68.921  41.072  0.00  0.00    -0.244 OA
ATOM     13  OXT GLU A   1      47.372  67.331  42.658  0.00  0.00    -0.244 OA
ENDBRANCH  10  11
BRANCH  10  14
ATOM     14  CB  GLU A   1      46.764  69.732  44.505  0.00  0.00    +0.045 C 
BRANCH  14  15
ATOM     15  CG  GLU A   1      48.119  70.286  44.679  0.00  0.00    +0.116 C 
BRANCH  15  16
ATOM     16  CD  GLU A   1      48.470  70.459  46.086  0.00  0.00    +0.365 C 
ATOM     17  OE1 GLU A   1      48.850  69.505  46.824  0.00  0.00    -0.246 OA
ATOM     18  OE2 GLU A   1      48.392  71.715  46.664  0.00  0.00    -0.246 OA
ENDBRANCH  15  16
ENDBRANCH  14  15
ENDBRANCH  10  14
ENDBRANCH   9  10
ENDBRANCH   4   7
BRANCH   1  19
ATOM     19  N   UNK A   0      44.299  76.836  40.457  0.00  0.00    -0.236 NA
BRANCH  19  20
ATOM     20  C   UNK A   0      43.867  77.943  41.328  0.00  0.00    +0.134 C 
BRANCH  20  22
ATOM     21  C   UNK A   0      46.291  78.575  41.521  0.00  0.00    +0.136 C 
ATOM     22  C   UNK A   0      44.883  79.022  41.186  0.00  0.00    +0.124 C 
ATOM     23  N   UNK A   0      44.922  79.685  39.920  0.00  0.00    -0.243 N 
ATOM     24  C   UNK A   0      45.800  80.819  39.829  0.00  0.00    +0.146 A 
ATOM     25  C   UNK A   0      46.944  80.861  40.626  0.00  0.00    +0.169 A 
ATOM     26  N   UNK A   0      47.145  79.754  41.479  0.00  0.00    -0.217 NA
ATOM     27  N   UNK A   0      47.750  81.912  40.534  0.00  0.00    -0.193 NA
ATOM     28  C   UNK A   0      47.529  82.955  39.708  0.00  0.00    +0.260 A 
ATOM     29  N   UNK A   0      46.434  82.938  38.930  0.00  0.00    -0.171 NA
ATOM     30  C   UNK A   0      45.580  81.888  38.987  0.00  0.00    +0.298 A 
ATOM     31  O   UNK A   0      44.554  81.867  38.264  0.00  0.00    -0.264 OA
ATOM     32  N   UNK A   0      48.458  84.043  39.681  0.00  0.00    -0.086 NA
ATOM     33  C   UNK A   0      44.209  79.323  38.775  0.00  0.00    +0.307 C 
ATOM     34  O   UNK A   0      43.136  78.645  38.965  0.00  0.00    -0.265 OA
ENDBRANCH  20  22
ENDBRANCH  19  20
ENDBRANCH   1  19
TORSDOF 9
