REMARK  Name = Levodropropizine
REMARK  4 active torsions:
REMARK  status: ('A' for Active; 'I' for Inactive)
REMARK    1  A    between atoms: N_3  and  C_12
REMARK    2  A    between atoms: N_6  and  C_7
REMARK    3  A    between atoms: C_7  and  C_8
REMARK    4  A    between atoms: C_8  and  C_9
REMARK                            x       y       z     vdW  Elec       q    Type
REMARK                         _______ _______ _______ _____ _____    ______ ____
ROOT
ATOM      1  C   UNL     1      44.168  79.272  40.684  0.00  0.00    +0.094 C 
ATOM      2  C   UNL     1      44.096  77.927  39.972  0.00  0.00    +0.108 C 
ATOM      3  N   UNL     1      43.185  78.104  38.860  0.00  0.00    -0.305 N 
ATOM      4  C   UNL     1      43.502  79.162  37.925  0.00  0.00    +0.108 C 
ATOM      5  C   UNL     1      44.136  80.374  38.536  0.00  0.00    +0.094 C 
ATOM      6  N   UNL     1      44.736  80.203  39.781  0.00  0.00    -0.268 NA
ENDROOT
BRANCH   3   7
ATOM      7  C   UNL     1      42.036  77.283  38.715  0.00  0.00    +0.048 A 
ATOM      8  C   UNL     1      41.878  76.188  39.568  0.00  0.00    +0.015 A 
ATOM      9  C   UNL     1      40.780  75.335  39.465  0.00  0.00    +0.001 A 
ATOM     10  C   UNL     1      39.804  75.537  38.514  0.00  0.00    +0.000 A 
ATOM     11  C   UNL     1      39.960  76.613  37.677  0.00  0.00    +0.001 A 
ATOM     12  C   UNL     1      41.048  77.465  37.774  0.00  0.00    +0.015 A 
ENDBRANCH   3   7
BRANCH   6  13
ATOM     13  C   UNL     1      46.030  80.674  40.029  0.00  0.00    +0.108 C 
BRANCH  13  14
ATOM     14  C   UNL     1      46.381  81.737  38.992  0.00  0.00    +0.201 C 
ATOM     15  O   UNL     1      45.178  82.162  38.444  0.00  0.00    -0.219 OA
BRANCH  14  16
ATOM     16  C   UNL     1      47.093  82.858  39.708  0.00  0.00    +0.216 C 
ATOM     17  O   UNL     1      48.365  82.413  40.078  0.00  0.00    -0.218 OA
ENDBRANCH  14  16
ENDBRANCH  13  14
ENDBRANCH   6  13
TORSDOF 4
