REMARK  Name = Levodopa
REMARK  3 active torsions:
REMARK  status: ('A' for Active; 'I' for Inactive)
REMARK    1  A    between atoms: C_6  and  C_7
REMARK    2  A    between atoms: C_7  and  CA_8
REMARK    3  A    between atoms: CA_8  and  C_9
REMARK                            x       y       z     vdW  Elec       q    Type
REMARK                         _______ _______ _______ _____ _____    ______ ____
ROOT
ATOM      1  C   UNL     1      46.699  80.251  41.470  0.00  0.00    -0.001 A 
ATOM      2  C   UNL     1      45.712  79.966  40.544  0.00  0.00    +0.045 A 
ATOM      3  C   UNL     1      45.476  80.780  39.463  0.00  0.00    +0.234 A 
ATOM      4  C   UNL     1      46.254  81.903  39.319  0.00  0.00    +0.234 A 
ATOM      5  C   UNL     1      47.249  82.244  40.201  0.00  0.00    +0.041 A 
ATOM      6  C   UNL     1      47.459  81.390  41.288  0.00  0.00    -0.017 A 
ATOM      7  O   UNL     1      46.025  82.742  38.224  0.00  0.00    -0.283 OA
ATOM      8  O   UNL     1      44.468  80.428  38.577  0.00  0.00    -0.283 OA
ENDROOT
BRANCH   6   9
ATOM      9  C   UNL     1      48.536  81.748  42.252  0.00  0.00    +0.057 C 
BRANCH   9  10
ATOM     10  CA  UNL     1      49.869  81.287  41.681  0.00  0.00    +0.199 C 
ATOM     11  N   UNL     1      49.986  79.867  41.832  0.00  0.00    -0.120 NA
BRANCH  10  12
ATOM     12  C   UNL     1      51.020  81.951  42.301  0.00  0.00    +0.382 C 
ATOM     13  O   UNL     1      51.876  81.282  42.913  0.00  0.00    -0.244 OA
ATOM     14  OXT UNL     1      51.223  83.331  42.246  0.00  0.00    -0.244 OA
ENDBRANCH  10  12
ENDBRANCH   9  10
ENDBRANCH   6   9
TORSDOF 3
