REMARK  Name = Levocabastine
REMARK  5 active torsions:
REMARK  status: ('A' for Active; 'I' for Inactive)
REMARK    1  A    between atoms: N_4  and  C_17
REMARK    2  A    between atoms: C_7  and  C_8
REMARK    3  A    between atoms: C_7  and  C_14
REMARK    4  A    between atoms: C_20  and  C_23
REMARK    5  A    between atoms: C_20  and  C_25
REMARK                            x       y       z     vdW  Elec       q    Type
REMARK                         _______ _______ _______ _____ _____    ______ ____
ROOT
ATOM      1  C   UNL     1      43.583  80.920  41.361  0.00  0.00    +0.002 C 
ATOM      2  C   UNL     1      44.999  80.704  40.945  0.00  0.00    +0.030 C 
ATOM      3  C   UNL     1      45.855  81.961  41.046  0.00  0.00    +0.073 C 
ATOM      4  N   UNL     1      47.202  81.600  41.034  0.00  0.00    -0.274 NA
ATOM      5  C   UNL     1      47.495  80.258  40.581  0.00  0.00    +0.073 C 
ATOM      6  C   UNL     1      46.662  79.882  39.380  0.00  0.00    +0.032 C 
ATOM      7  C   UNL     1      45.175  79.974  39.646  0.00  0.00    +0.115 C 
ENDROOT
BRANCH   7   8
ATOM      8  C   UNL     1      44.566  78.629  39.821  0.00  0.00    -0.013 A 
ATOM      9  C   UNL     1      43.785  78.078  38.823  0.00  0.00    -0.004 A 
ATOM     10  C   UNL     1      43.185  76.841  38.924  0.00  0.00    -0.000 A 
ATOM     11  C   UNL     1      43.356  76.092  40.069  0.00  0.00    -0.000 A 
ATOM     12  C   UNL     1      44.132  76.626  41.075  0.00  0.00    -0.000 A 
ATOM     13  C   UNL     1      44.731  77.877  40.957  0.00  0.00    -0.004 A 
ENDBRANCH   7   8
BRANCH   4  14
ATOM     14  C   UNL     1      48.119  82.093  41.957  0.00  0.00    +0.058 C 
ATOM     15  C   UNL     1      48.642  83.465  41.789  0.00  0.00    +0.017 C 
ATOM     16  C   UNL     1      50.103  83.531  41.382  0.00  0.00    +0.020 C 
ATOM     17  C   UNL     1      50.991  82.930  42.405  0.00  0.00    +0.098 C 
ATOM     18  C   UNL     1      50.267  81.735  43.018  0.00  0.00    +0.020 C 
ATOM     19  C   UNL     1      49.325  81.141  41.995  0.00  0.00    +0.017 C 
BRANCH  17  20
ATOM     20  C   UNL     1      51.404  83.805  43.495  0.00  0.00    -0.010 A 
ATOM     21  C   UNL     1      52.753  84.132  43.565  0.00  0.00    -0.001 A 
ATOM     22  C   UNL     1      53.273  84.942  44.534  0.00  0.00    +0.029 A 
ATOM     23  C   UNL     1      52.455  85.474  45.499  0.00  0.00    +0.140 A 
ATOM     24  C   UNL     1      51.113  85.161  45.447  0.00  0.00    +0.029 A 
ATOM     25  C   UNL     1      50.580  84.337  44.462  0.00  0.00    -0.001 A 
ATOM     26  F   UNL     1      52.930  86.283  46.477  0.00  0.00    -0.204 F 
ENDBRANCH  17  20
BRANCH  17  27
ATOM     27  C   UNL     1      52.204  82.355  41.776  0.00  0.00    +0.075 C 
ATOM     28  N   UNL     1      53.155  81.913  41.269  0.00  0.00    -0.196 NA
ENDBRANCH  17  27
ENDBRANCH   4  14
BRANCH   7  29
ATOM     29  C   UNL     1      44.587  80.680  38.480  0.00  0.00    +0.368 C 
ATOM     30  O   UNL     1      45.313  81.219  37.620  0.00  0.00    -0.245 OA
ATOM     31  O   UNL     1      43.219  80.754  38.323  0.00  0.00    -0.245 OA
ENDBRANCH   7  29
TORSDOF 5
