REMARK  Name = Levofloxacin
REMARK  2 active torsions:
REMARK  status: ('A' for Active; 'I' for Inactive)
REMARK    1  A    between atoms: C_9  and  C_24
REMARK    2  A    between atoms: C_15  and  N_16
REMARK                            x       y       z     vdW  Elec       q    Type
REMARK                         _______ _______ _______ _____ _____    ______ ____
ROOT
ATOM      1  C   UNL     1      46.514  77.808  42.303  0.00  0.00    +0.028 C 
ATOM      2  C   UNL     1      45.151  78.005  41.689  0.00  0.00    +0.129 C 
ATOM      3  C   UNL     1      44.603  76.745  41.123  0.00  0.00    +0.228 C 
ATOM      4  O   UNL     1      43.281  77.068  40.651  0.00  0.00    -0.471 OA
ATOM      5  C   UNL     1      43.163  78.084  39.701  0.00  0.00    +0.170 A 
ATOM      6  C   UNL     1      44.134  79.081  39.806  0.00  0.00    +0.099 A 
ATOM      7  N   UNL     1      45.104  79.068  40.742  0.00  0.00    -0.321 N 
ATOM      8  C   UNL     1      46.023  80.087  40.775  0.00  0.00    +0.086 A 
ATOM      9  C   UNL     1      46.037  81.138  39.918  0.00  0.00    +0.136 A 
ATOM     10  C   UNL     1      45.034  81.157  38.947  0.00  0.00    +0.205 A 
ATOM     11  O   UNL     1      44.953  82.080  38.105  0.00  0.00    -0.286 OA
ATOM     12  C   UNL     1      44.109  80.135  38.910  0.00  0.00    +0.060 A 
ATOM     13  C   UNL     1      43.119  80.132  37.967  0.00  0.00    +0.036 A 
ATOM     14  C   UNL     1      42.145  79.140  37.858  0.00  0.00    +0.157 A 
ATOM     15  C   UNL     1      42.163  78.070  38.758  0.00  0.00    +0.112 A 
ATOM     16  F   UNL     1      41.218  79.243  36.881  0.00  0.00    -0.203 F 
ENDROOT
BRANCH  15  17
ATOM     17  N   UNL     1      41.187  77.030  38.660  0.00  0.00    -0.301 N 
ATOM     18  C   UNL     1      41.103  76.317  37.372  0.00  0.00    +0.108 C 
ATOM     19  C   UNL     1      40.005  75.266  37.463  0.00  0.00    +0.094 C 
ATOM     20  N   UNL     1      40.248  74.390  38.563  0.00  0.00    -0.269 NA
ATOM     21  C   UNL     1      40.514  75.060  39.795  0.00  0.00    +0.094 C 
ATOM     22  C   UNL     1      40.287  76.583  39.662  0.00  0.00    +0.108 C 
ATOM     23  C   UNL     1      39.222  73.409  38.744  0.00  0.00    +0.090 C 
ENDBRANCH  15  17
BRANCH   9  24
ATOM     24  C   UNL     1      47.028  82.198  39.985  0.00  0.00    +0.392 C 
ATOM     25  O   UNL     1      47.719  82.296  41.031  0.00  0.00    -0.240 OA
ATOM     26  O   UNL     1      47.227  83.083  38.953  0.00  0.00    -0.240 OA
ENDBRANCH   9  24
TORSDOF 2
