REMARK  Name = Levomilnacipran
REMARK  5 active torsions:
REMARK  status: ('A' for Active; 'I' for Inactive)
REMARK    1  A    between atoms: C_2  and  N_3
REMARK    2  A    between atoms: N_3  and  C_4
REMARK    3  A    between atoms: C_6  and  C_8
REMARK    4  A    between atoms: C_8  and  C_13
REMARK    5  A    between atoms: C_10  and  C_11
REMARK                            x       y       z     vdW  Elec       q    Type
REMARK                         _______ _______ _______ _____ _____    ______ ____
ROOT
ATOM      1  C   UNL     1      48.558  81.697  41.916  0.00  0.00    +0.089 C 
ATOM      2  C   UNL     1      48.617  80.532  42.856  0.00  0.00    +0.015 C 
ATOM      3  C   UNL     1      49.904  81.022  42.226  0.00  0.00    +0.032 C 
ENDROOT
BRANCH   1   4
ATOM      4  C   UNL     1      48.535  83.058  42.510  0.00  0.00    -0.015 A 
ATOM      5  C   UNL     1      47.318  83.565  42.916  0.00  0.00    -0.004 A 
ATOM      6  C   UNL     1      47.252  84.823  43.475  0.00  0.00    -0.000 A 
ATOM      7  C   UNL     1      48.386  85.591  43.637  0.00  0.00    -0.000 A 
ATOM      8  C   UNL     1      49.615  85.103  43.236  0.00  0.00    -0.000 A 
ATOM      9  C   UNL     1      49.647  83.838  42.680  0.00  0.00    -0.004 A 
ENDBRANCH   1   4
BRANCH   1  11
ATOM     10  N   UNL     1      46.620  81.307  40.250  0.00  0.00    -0.279 N 
ATOM     11  C   UNL     1      47.950  81.385  40.628  0.00  0.00    +0.229 C 
ATOM     12  O   UNL     1      48.806  81.133  39.679  0.00  0.00    -0.275 OA
BRANCH  10  14
ATOM     13  C   UNL     1      46.300  83.026  38.519  0.00  0.00    +0.023 C 
ATOM     14  C   UNL     1      46.278  81.540  38.799  0.00  0.00    +0.093 C 
ENDBRANCH  10  14
BRANCH  10  15
ATOM     15  C   UNL     1      45.493  80.938  41.067  0.00  0.00    +0.093 C 
ATOM     16  C   UNL     1      45.380  79.402  41.135  0.00  0.00    +0.023 C 
ENDBRANCH  10  15
ENDBRANCH   1  11
BRANCH   3  17
ATOM     17  C   UNL     1      50.857  81.653  43.181  0.00  0.00    +0.110 C 
ATOM     18  N   UNL     1      52.196  81.423  42.664  0.00  0.00    -0.131 NA
ENDBRANCH   3  17
TORSDOF 5
