REMARK  Name = LGX818
REMARK  9 active torsions:
REMARK  status: ('A' for Active; 'I' for Inactive)
REMARK    1  A    between atoms: C_2  and  N_4
REMARK    2  A    between atoms: C_6  and  C_22
REMARK    3  A    between atoms: C_7  and  C_9
REMARK    4  A    between atoms: C_11  and  N_16
REMARK    5  A    between atoms: N_16  and  S_17
REMARK    6  A    between atoms: N_28  and  C_29
REMARK    7  A    between atoms: C_29  and  C_30
REMARK    8  A    between atoms: C_30  and  N_32
REMARK    9  A    between atoms: C_33  and  O_35
REMARK                            x       y       z     vdW  Elec       q    Type
REMARK                         _______ _______ _______ _____ _____    ______ ____
ROOT
ATOM      1  N   UNL     1      46.029  78.057  43.059  0.00  0.00    -0.251 N 
ATOM      2  C   UNL     1      45.384  78.567  41.985  0.00  0.00    +0.098 A 
ATOM      3  C   UNL     1      45.925  79.795  41.668  0.00  0.00    +0.056 A 
ATOM      4  C   UNL     1      46.930  80.022  42.590  0.00  0.00    +0.106 A 
ATOM      5  N   UNL     1      46.934  78.938  43.391  0.00  0.00    -0.169 NA
ENDROOT
BRANCH   4   6
ATOM      6  C   UNL     1      47.793  81.200  42.670  0.00  0.00    +0.049 A 
ATOM      7  C   UNL     1      49.118  81.111  42.305  0.00  0.00    +0.158 A 
ATOM      8  C   UNL     1      49.989  82.202  42.361  0.00  0.00    +0.119 A 
ATOM      9  C   UNL     1      49.534  83.419  42.791  0.00  0.00    +0.032 A 
ATOM     10  C   UNL     1      48.203  83.534  43.164  0.00  0.00    +0.059 A 
ATOM     11  C   UNL     1      47.361  82.433  43.098  0.00  0.00    +0.015 A 
ATOM     12 CL   UNL     1      47.637  85.096  43.712  0.00  0.00    -0.082 Cl
ATOM     13  F   UNL     1      49.616  79.931  41.874  0.00  0.00    -0.203 F 
BRANCH   8  14
ATOM     14  N   UNL     1      51.336  82.050  41.968  0.00  0.00    -0.098 NA
BRANCH  14  15
ATOM     15  S   UNL     1      52.404  83.385  41.926  0.00  0.00    +0.075 S 
ATOM     16  O   UNL     1      53.795  82.918  41.541  0.00  0.00    -0.153 OA
ATOM     17  O   UNL     1      51.933  84.359  40.906  0.00  0.00    -0.153 OA
ATOM     18  C   UNL     1      52.488  84.094  43.545  0.00  0.00    +0.202 C 
ENDBRANCH  14  15
ENDBRANCH   8  14
ENDBRANCH   4   6
BRANCH   3  19
ATOM     19  C   UNL     1      45.493  80.649  40.556  0.00  0.00    +0.089 A 
ATOM     20  N   UNL     1      44.506  80.283  39.721  0.00  0.00    -0.212 NA
ATOM     21  C   UNL     1      44.084  81.047  38.698  0.00  0.00    +0.237 A 
ATOM     22  N   UNL     1      44.704  82.230  38.532  0.00  0.00    -0.211 NA
ATOM     23  C   UNL     1      45.698  82.680  39.313  0.00  0.00    +0.103 A 
ATOM     24  C   UNL     1      46.103  81.869  40.352  0.00  0.00    +0.040 A 
ATOM     25  N   UNL     1      43.016  80.628  37.839  0.00  0.00    -0.202 NA
BRANCH  25  26
ATOM     26  C   UNL     1      42.914  79.301  37.360  0.00  0.00    +0.137 C 
BRANCH  26  27
ATOM     27  C   UNL     1      41.868  78.432  38.000  0.00  0.00    +0.120 C 
ATOM     28  C   UNL     1      42.215  77.898  39.341  0.00  0.00    +0.025 C 
BRANCH  27  29
ATOM     29  N   UNL     1      41.489  77.323  37.148  0.00  0.00    -0.169 NA
ATOM     30  C   UNL     1      40.138  76.919  37.042  0.00  0.00    +0.421 C 
ATOM     31  O   UNL     1      39.562  76.387  38.010  0.00  0.00    -0.225 OA
BRANCH  30  32
ATOM     32  O   UNL     1      39.433  77.116  35.841  0.00  0.00    -0.429 OA
ATOM     33  C   UNL     1      38.275  76.360  35.553  0.00  0.00    +0.257 C 
ENDBRANCH  30  32
ENDBRANCH  27  29
ENDBRANCH  26  27
ENDBRANCH  25  26
ENDBRANCH   3  19
BRANCH   1  35
ATOM     34  C   UNL     1      46.733  75.767  43.185  0.00  0.00    +0.026 C 
ATOM     35  C   UNL     1      45.729  76.765  43.682  0.00  0.00    +0.105 C 
ATOM     36  C   UNL     1      45.909  76.871  45.184  0.00  0.00    +0.026 C 
ENDBRANCH   1  35
TORSDOF 9
