REMARK  Name = LIDOFLAZINE
REMARK  9 active torsions:
REMARK  status: ('A' for Active; 'I' for Inactive)
REMARK    1  A    between atoms: C_3  and  N_9
REMARK    2  A    between atoms: C_10  and  C_12
REMARK    3  A    between atoms: C_12  and  N_13
REMARK    4  A    between atoms: N_16  and  C_19
REMARK    5  A    between atoms: C_19  and  C_20
REMARK    6  A    between atoms: C_20  and  C_21
REMARK    7  A    between atoms: C_21  and  C_22
REMARK    8  A    between atoms: C_22  and  C_23
REMARK    9  A    between atoms: C_22  and  C_30
REMARK                            x       y       z     vdW  Elec       q    Type
REMARK                         _______ _______ _______ _____ _____    ______ ____
ROOT
ATOM      1  N   UNL     1      43.379  78.464  38.855  0.00  0.00    -0.263 NA
ATOM      2  C   UNL     1      43.535  78.406  40.289  0.00  0.00    +0.090 C 
ATOM      3  C   UNL     1      44.997  78.498  40.682  0.00  0.00    +0.090 C 
ATOM      4  N   UNL     1      45.430  79.893  40.522  0.00  0.00    -0.270 NA
ATOM      5  C   UNL     1      44.883  80.373  39.249  0.00  0.00    +0.090 C 
ATOM      6  C   UNL     1      44.465  79.269  38.343  0.00  0.00    +0.090 C 
ENDROOT
BRANCH   1   7
ATOM      7  C   UNL     1      42.092  79.027  38.484  0.00  0.00    +0.161 C 
BRANCH   7   9
ATOM      8  N   UNL     1      39.847  78.120  37.862  0.00  0.00    -0.179 NA
ATOM      9  C   UNL     1      41.072  77.956  38.550  0.00  0.00    +0.262 C 
ATOM     10  O   UNL     1      41.291  76.928  39.208  0.00  0.00    -0.271 OA
BRANCH   8  13
ATOM     11  C   UNL     1      37.667  78.126  39.811  0.00  0.00    +0.032 C 
ATOM     12  C   UNL     1      37.879  77.039  38.824  0.00  0.00    -0.007 A 
ATOM     13  C   UNL     1      38.893  77.072  37.910  0.00  0.00    +0.065 A 
ATOM     14  C   UNL     1      39.016  76.023  36.993  0.00  0.00    -0.007 A 
ATOM     15  C   UNL     1      38.153  74.951  36.975  0.00  0.00    -0.003 A 
ATOM     16  C   UNL     1      37.128  74.911  37.894  0.00  0.00    -0.001 A 
ATOM     17  C   UNL     1      37.009  75.947  38.796  0.00  0.00    -0.003 A 
ATOM     18  C   UNL     1      40.142  76.127  36.014  0.00  0.00    +0.032 C 
ENDBRANCH   8  13
ENDBRANCH   7   9
ENDBRANCH   1   7
BRANCH   4  19
ATOM     19  C   UNL     1      46.859  80.014  40.603  0.00  0.00    +0.072 C 
BRANCH  19  20
ATOM     20  C   UNL     1      47.235  80.238  42.049  0.00  0.00    +0.018 C 
BRANCH  20  21
ATOM     21  C   UNL     1      48.745  80.442  42.052  0.00  0.00    +0.010 C 
BRANCH  21  22
ATOM     22  C   UNL     1      49.185  81.740  41.507  0.00  0.00    +0.045 C 
BRANCH  22  23
ATOM     23  C   UNL     1      48.637  82.951  42.167  0.00  0.00    -0.018 A 
ATOM     24  C   UNL     1      48.235  84.010  41.390  0.00  0.00    -0.002 A 
ATOM     25  C   UNL     1      47.718  85.131  41.979  0.00  0.00    +0.029 A 
ATOM     26  C   UNL     1      47.596  85.207  43.356  0.00  0.00    +0.140 A 
ATOM     27  C   UNL     1      48.004  84.135  44.120  0.00  0.00    +0.029 A 
ATOM     28  C   UNL     1      48.522  83.013  43.528  0.00  0.00    -0.002 A 
ATOM     29  F   UNL     1      47.072  86.344  43.902  0.00  0.00    -0.204 F 
ENDBRANCH  22  23
BRANCH  22  30
ATOM     30  C   UNL     1      50.672  81.803  41.461  0.00  0.00    -0.018 A 
ATOM     31  C   UNL     1      51.297  82.335  40.328  0.00  0.00    -0.002 A 
ATOM     32  C   UNL     1      52.662  82.423  40.248  0.00  0.00    +0.029 A 
ATOM     33  C   UNL     1      53.481  81.986  41.288  0.00  0.00    +0.140 A 
ATOM     34  C   UNL     1      52.873  81.463  42.402  0.00  0.00    +0.029 A 
ATOM     35  C   UNL     1      51.491  81.380  42.473  0.00  0.00    -0.002 A 
ATOM     36  F   UNL     1      54.841  82.102  41.148  0.00  0.00    -0.204 F 
ENDBRANCH  22  30
ENDBRANCH  21  22
ENDBRANCH  20  21
ENDBRANCH  19  20
ENDBRANCH   4  19
TORSDOF 9
