REMARK  Name = lifitegrast
REMARK  7 active torsions:
REMARK  status: ('A' for Active; 'I' for Inactive)
REMARK    1  A    between atoms: S_2  and  C_5
REMARK    2  A    between atoms: C_9  and  C_11
REMARK    3  A    between atoms: C_11  and  CA_12
REMARK    4  A    between atoms: CA_12  and  C_13
REMARK    5  A    between atoms: CA_12  and  N_16
REMARK    6  A    between atoms: C_17  and  C_19
REMARK    7  A    between atoms: C_30  and  C_32
REMARK                            x       y       z     vdW  Elec       q    Type
REMARK                         _______ _______ _______ _____ _____    ______ ____
ROOT
ATOM      1  C   UNL     1      49.417  82.979  43.264  0.00  0.00    +0.076 A 
ATOM      2  C   UNL     1      48.356  83.826  43.312  0.00  0.00    +0.063 A 
ATOM      3  C   UNL     1      47.267  83.752  42.425  0.00  0.00    +0.009 A 
ATOM      4  C   UNL     1      47.292  82.751  41.455  0.00  0.00    -0.005 A 
ATOM      5  C   UNL     1      46.177  82.629  40.488  0.00  0.00    +0.120 C 
ATOM      6  N   UNL     1      46.063  81.340  39.852  0.00  0.00    -0.272 N 
ATOM      7  C   UNL     1      46.927  80.273  40.253  0.00  0.00    +0.099 C 
ATOM      8  C   UNL     1      48.355  80.807  40.330  0.00  0.00    +0.048 C 
ATOM      9  C   UNL     1      48.340  81.870  41.367  0.00  0.00    -0.012 A 
ATOM     10  C   UNL     1      49.375  81.992  42.260  0.00  0.00    +0.059 A 
ATOM     11 CL   UNL     1      50.725  80.873  42.165  0.00  0.00    -0.082 Cl
ATOM     12  C   UNL     1      45.065  81.226  38.843  0.00  0.00    +0.249 C 
ATOM     13  O   UNL     1      44.895  82.130  37.960  0.00  0.00    -0.270 OA
ATOM     14 CL   UNL     1      48.249  85.059  44.549  0.00  0.00    -0.082 Cl
ENDROOT
BRANCH  12  15
ATOM     15  C   UNL     1      44.220  80.038  38.826  0.00  0.00    +0.057 A 
ATOM     16  C   UNL     1      44.251  79.110  39.845  0.00  0.00    +0.042 A 
ATOM     17  C   UNL     1      43.455  77.964  39.834  0.00  0.00    +0.146 A 
ATOM     18  C   UNL     1      42.607  77.763  38.753  0.00  0.00    +0.038 A 
ATOM     19  C   UNL     1      42.550  78.668  37.718  0.00  0.00    +0.003 A 
ATOM     20  C   UNL     1      43.351  79.782  37.772  0.00  0.00    +0.005 A 
ATOM     21  C   UNL     1      41.941  76.575  38.983  0.00  0.00    +0.044 A 
ATOM     22  C   UNL     1      42.410  76.113  40.181  0.00  0.00    +0.180 A 
ATOM     23  O   UNL     1      43.291  76.947  40.649  0.00  0.00    -0.450 OA
ENDBRANCH  12  15
BRANCH   1  25
ATOM     24  N   UNL     1      51.216  81.910  44.642  0.00  0.00    -0.191 NA
ATOM     25  C   UNL     1      50.586  83.027  44.105  0.00  0.00    +0.267 C 
ATOM     26  O   UNL     1      51.116  84.162  44.409  0.00  0.00    -0.268 OA
BRANCH  24  27
ATOM     27  CA  UNL     1      52.412  82.072  45.502  0.00  0.00    +0.202 C 
BRANCH  27  28
ATOM     28  C   UNL     1      52.927  80.717  45.852  0.00  0.00    +0.385 C 
ATOM     29  O   UNL     1      54.118  80.480  46.136  0.00  0.00    -0.244 OA
ATOM     30  OXT UNL     1      52.054  79.640  45.872  0.00  0.00    -0.244 OA
ENDBRANCH  27  28
BRANCH  27  31
ATOM     31  C   UNL     1      51.938  82.824  46.706  0.00  0.00    +0.060 C 
BRANCH  31  36
ATOM     32  C   UNL     1      54.754  83.217  49.138  0.00  0.00    +0.105 A 
ATOM     33  C   UNL     1      55.054  84.564  49.010  0.00  0.00    +0.018 A 
ATOM     34  C   UNL     1      54.341  85.350  48.128  0.00  0.00    +0.001 A 
ATOM     35  C   UNL     1      53.316  84.834  47.349  0.00  0.00    -0.004 A 
ATOM     36  C   UNL     1      53.005  83.500  47.463  0.00  0.00    -0.019 A 
ATOM     37  C   UNL     1      53.736  82.740  48.354  0.00  0.00    +0.014 A 
BRANCH  32  39
ATOM     38  C   UNL     1      54.970  80.525  50.052  0.00  0.00    +0.182 C 
ATOM     39  S   UNL     1      55.612  82.157  50.245  0.00  0.00    +0.010 S 
ATOM     40  O   UNL     1      57.070  82.238  49.934  0.00  0.00    -0.169 OA
ATOM     41  O   UNL     1      55.346  82.612  51.656  0.00  0.00    -0.169 OA
ENDBRANCH  32  39
ENDBRANCH  31  36
ENDBRANCH  27  31
ENDBRANCH  24  27
ENDBRANCH   1  25
TORSDOF 7
