REMARK  Name = Limaprost
REMARK  13 active torsions:
REMARK  status: ('A' for Active; 'I' for Inactive)
REMARK    1  A    between atoms: C_2  and  C_3
REMARK    2  A    between atoms: C_3  and  C_4
REMARK    3  A    between atoms: C_4  and  C_5
REMARK    4  A    between atoms: C_5  and  C_7
REMARK    5  A    between atoms: C_7  and  C_8
REMARK    6  A    between atoms: C_8  and  C_9
REMARK    7  A    between atoms: C_10  and  C_11
REMARK    8  A    between atoms: C_16  and  C_17
REMARK    9  A    between atoms: C_17  and  C_18
REMARK   10  A    between atoms: C_18  and  C_19
REMARK   11  A    between atoms: C_19  and  C_20
REMARK   12  A    between atoms: C_20  and  C_21
REMARK   13  A    between atoms: C_22  and  C_23
REMARK                            x       y       z     vdW  Elec       q    Type
REMARK                         _______ _______ _______ _____ _____    ______ ____
ROOT
ATOM      1  C   UNL     1      43.328  79.257  40.155  0.00  0.00    +0.059 C 
ATOM      2  C   UNL     1      42.056  79.177  39.340  0.00  0.00    +0.164 C 
ATOM      3  C   UNL     1      42.272  77.987  38.427  0.00  0.00    +0.098 C 
ATOM      4  C   UNL     1      43.446  77.276  38.983  0.00  0.00    +0.153 C 
ATOM      5  O   UNL     1      44.064  76.420  38.385  0.00  0.00    -0.296 OA
ATOM      6  C   UNL     1      43.722  77.773  40.331  0.00  0.00    +0.064 C 
ATOM      7  O   UNL     1      41.873  80.335  38.601  0.00  0.00    -0.222 OA
ENDROOT
BRANCH   1   9
ATOM      8  C   UNL     1      45.078  80.908  40.048  0.00  0.00    +0.002 C 
ATOM      9  C   UNL     1      44.338  80.011  39.409  0.00  0.00    -0.026 C 
BRANCH   8  10
ATOM     10  C   UNL     1      45.590  82.150  39.380  0.00  0.00    +0.174 C 
ATOM     11  O   UNL     1      46.139  81.812  38.136  0.00  0.00    -0.218 OA
BRANCH  10  12
ATOM     12  C   UNL     1      46.595  82.745  40.326  0.00  0.00    +0.037 C 
BRANCH  12  13
ATOM     13  C   UNL     1      47.821  81.941  40.569  0.00  0.00    +0.003 C 
ATOM     14  C   UNL     1      48.373  81.565  39.194  0.00  0.00    +0.000 C 
BRANCH  13  15
ATOM     15  C   UNL     1      48.864  82.579  41.420  0.00  0.00    +0.000 C 
BRANCH  15  16
ATOM     16  C   UNL     1      48.335  83.724  42.252  0.00  0.00    +0.000 C 
BRANCH  16  18
ATOM     17  C   UNL     1      49.055  85.555  43.792  0.00  0.00    +0.000 C 
ATOM     18  C   UNL     1      49.498  84.421  42.900  0.00  0.00    +0.000 C 
ENDBRANCH  16  18
ENDBRANCH  15  16
ENDBRANCH  13  15
ENDBRANCH  12  13
ENDBRANCH  10  12
ENDBRANCH   8  10
ENDBRANCH   1   9
BRANCH   6  19
ATOM     19  C   UNL     1      42.876  77.282  41.452  0.00  0.00    +0.008 C 
BRANCH  19  20
ATOM     20  C   UNL     1      43.503  76.610  42.598  0.00  0.00    +0.001 C 
BRANCH  20  21
ATOM     21  C   UNL     1      44.965  76.387  42.617  0.00  0.00    +0.005 C 
BRANCH  21  22
ATOM     22  C   UNL     1      45.581  77.179  43.788  0.00  0.00    +0.026 C 
BRANCH  22  23
ATOM     23  C   UNL     1      45.245  76.435  44.997  0.00  0.00    -0.019 C 
ATOM     24  C   UNL     1      45.697  76.669  46.178  0.00  0.00    +0.082 C 
BRANCH  24  25
ATOM     25  C   UNL     1      45.531  75.917  47.388  0.00  0.00    +0.388 C 
ATOM     26  O   UNL     1      46.124  76.330  48.454  0.00  0.00    -0.241 OA
ATOM     27  O   UNL     1      44.780  74.758  47.547  0.00  0.00    -0.241 OA
ENDBRANCH  24  25
ENDBRANCH  22  23
ENDBRANCH  21  22
ENDBRANCH  20  21
ENDBRANCH  19  20
ENDBRANCH   6  19
TORSDOF 13
