REMARK  Name = Linagliptin
REMARK  4 active torsions:
REMARK  status: ('A' for Active; 'I' for Inactive)
REMARK    1  A    between atoms: C_3  and  C_4
REMARK    2  A    between atoms: C_4  and  N_5
REMARK    3  A    between atoms: N_20  and  C_23
REMARK    4  A    between atoms: C_23  and  C_24
REMARK                            x       y       z     vdW  Elec       q    Type
REMARK                         _______ _______ _______ _____ _____    ______ ____
ROOT
ATOM      1  N   UNL     1      47.548  82.003  40.520  0.00  0.00    -0.282 N 
ATOM      2  C   UNL     1      46.734  80.982  40.060  0.00  0.00    +0.154 A 
ATOM      3  C   UNL     1      47.088  79.862  40.733  0.00  0.00    +0.171 A 
ATOM      4  N   UNL     1      48.080  80.184  41.571  0.00  0.00    -0.196 NA
ATOM      5  C   UNL     1      48.376  81.539  41.437  0.00  0.00    +0.203 A 
ATOM      6  N   UNL     1      49.436  82.156  42.184  0.00  0.00    -0.278 N 
ATOM      7  C   UNL     1      50.208  83.234  41.612  0.00  0.00    +0.094 C 
ATOM      8  C   UNL     1      51.389  83.477  42.572  0.00  0.00    +0.023 C 
ATOM      9  C   UNL     1      52.054  82.109  42.674  0.00  0.00    +0.023 C 
ATOM     10  C   UNL     1      51.215  81.232  43.597  0.00  0.00    +0.112 C 
ATOM     11  C   UNL     1      49.746  81.637  43.482  0.00  0.00    +0.112 C 
ATOM     12  N   UNL     1      51.412  79.817  43.244  0.00  0.00    -0.131 NA
ATOM     13  N   UNL     1      46.372  78.691  40.503  0.00  0.00    -0.263 N 
ATOM     14  C   UNL     1      45.383  78.734  39.647  0.00  0.00    +0.335 A 
ATOM     15  O   UNL     1      44.718  77.587  39.457  0.00  0.00    -0.246 OA
ATOM     16  N   UNL     1      44.981  79.770  38.966  0.00  0.00    -0.240 N 
ATOM     17  C   UNL     1      45.700  80.985  39.170  0.00  0.00    +0.284 A 
ATOM     18  O   UNL     1      45.348  81.982  38.535  0.00  0.00    -0.265 OA
ATOM     19  C   UNL     1      46.799  77.488  41.167  0.00  0.00    +0.137 C 
ENDROOT
BRANCH   1  20
ATOM     20  C   UNL     1      47.470  83.313  39.953  0.00  0.00    +0.185 C 
BRANCH  20  23
ATOM     21  C   UNL     1      47.322  86.177  42.983  0.00  0.00    +0.090 C 
ATOM     22  C   UNL     1      47.383  85.172  41.925  0.00  0.00    -0.088 C 
ATOM     23  C   UNL     1      47.429  84.317  41.032  0.00  0.00    -0.066 C 
ENDBRANCH  20  23
ENDBRANCH   1  20
BRANCH  16  24
ATOM     24  C   UNL     1      43.788  79.808  38.209  0.00  0.00    +0.179 C 
BRANCH  24  25
ATOM     25  C   UNL     1      42.829  78.683  38.413  0.00  0.00    +0.162 A 
ATOM     26  N   UNL     1      41.920  78.225  37.701  0.00  0.00    -0.229 NA
ATOM     27  C   UNL     1      41.008  77.243  37.916  0.00  0.00    +0.084 A 
ATOM     28  C   UNL     1      40.056  76.821  37.051  0.00  0.00    +0.019 A 
ATOM     29  C   UNL     1      39.209  75.793  37.444  0.00  0.00    +0.002 A 
ATOM     30  C   UNL     1      39.325  75.220  38.671  0.00  0.00    +0.000 A 
ATOM     31  C   UNL     1      40.313  75.645  39.582  0.00  0.00    +0.003 A 
ATOM     32  C   UNL     1      41.167  76.668  39.198  0.00  0.00    +0.031 A 
ATOM     33  C   UNL     1      42.128  77.115  40.012  0.00  0.00    +0.062 A 
ATOM     34  N   UNL     1      43.029  78.125  39.719  0.00  0.00    -0.233 NA
ATOM     35  C   UNL     1      42.313  76.547  41.401  0.00  0.00    +0.052 C 
ENDBRANCH  24  25
ENDBRANCH  16  24
TORSDOF 4
