REMARK  Name = Lincomycin
REMARK  7 active torsions:
REMARK  status: ('A' for Active; 'I' for Inactive)
REMARK    1  A    between atoms: C_2  and  C_3
REMARK    2  A    between atoms: C_3  and  C_4
REMARK    3  A    between atoms: C_6  and  C_10
REMARK    4  A    between atoms: N_12  and  C_13
REMARK    5  A    between atoms: C_13  and  C_14
REMARK    6  A    between atoms: C_13  and  C_25
REMARK    7  A    between atoms: C_18  and  S_20
REMARK                            x       y       z     vdW  Elec       q    Type
REMARK                         _______ _______ _______ _____ _____    ______ ____
ROOT
ATOM      1  C   UNL     1      43.583  78.382  39.428  0.00  0.00    +0.155 C 
ENDROOT
BRANCH   1   2
ATOM      2  C   UNL     1      43.515  77.024  40.085  0.00  0.00    +0.172 C 
ATOM      3  C   UNL     1      42.118  76.451  40.057  0.00  0.00    +0.213 C 
ATOM      4  C   UNL     1      41.886  75.660  41.362  0.00  0.00    +0.218 C 
ATOM      5  C   UNL     1      43.197  74.958  41.654  0.00  0.00    +0.222 C 
ATOM      6  C   UNL     1      44.193  76.070  42.008  0.00  0.00    +0.195 C 
ATOM      7  O   UNL     1      43.742  77.294  41.466  0.00  0.00    -0.341 OA
ATOM      8  O   UNL     1      43.611  74.234  40.548  0.00  0.00    -0.217 OA
ATOM      9  O   UNL     1      40.863  74.739  41.127  0.00  0.00    -0.217 OA
ATOM     10  O   UNL     1      41.166  77.450  39.998  0.00  0.00    -0.218 OA
BRANCH   6  11
ATOM     11  S   UNL     1      44.330  76.130  43.796  0.00  0.00    -0.108 S 
ATOM     12  C   UNL     1      45.791  77.008  44.356  0.00  0.00    +0.072 C 
ENDBRANCH   6  11
ENDBRANCH   1   2
BRANCH   1  15
ATOM     13  C   UNL     1      45.291  80.120  39.939  0.00  0.00    +0.256 C 
ATOM     14  O   UNL     1      44.299  80.930  40.059  0.00  0.00    -0.272 OA
ATOM     15  N   UNL     1      44.985  78.837  39.434  0.00  0.00    -0.201 NA
BRANCH  13  18
ATOM     16  C   UNL     1      47.864  82.053  41.755  0.00  0.00    +0.018 C 
ATOM     17  C   UNL     1      46.610  81.195  41.718  0.00  0.00    +0.027 C 
ATOM     18  C   UNL     1      46.625  80.587  40.330  0.00  0.00    +0.137 C 
ATOM     19  N   UNL     1      47.214  81.607  39.494  0.00  0.00    -0.265 NA
ATOM     20  C   UNL     1      48.303  82.152  40.317  0.00  0.00    +0.073 C 
ATOM     21  C   UNL     1      46.320  82.713  39.210  0.00  0.00    +0.090 C 
BRANCH  16  22
ATOM     22  C   UNL     1      47.601  83.361  42.421  0.00  0.00    +0.001 C 
BRANCH  22  24
ATOM     23  C   UNL     1      48.443  84.231  44.609  0.00  0.00    +0.000 C 
ATOM     24  C   UNL     1      48.802  83.830  43.199  0.00  0.00    +0.000 C 
ENDBRANCH  22  24
ENDBRANCH  16  22
ENDBRANCH  13  18
ENDBRANCH   1  15
BRANCH   1  25
ATOM     25  C   UNL     1      43.177  78.413  37.988  0.00  0.00    +0.174 C 
ATOM     26  C   UNL     1      43.049  79.721  37.328  0.00  0.00    +0.037 C 
ATOM     27  O   UNL     1      42.053  77.627  37.747  0.00  0.00    -0.221 OA
ENDBRANCH   1  25
TORSDOF 7
