REMARK  Name = Linezolid
REMARK  4 active torsions:
REMARK  status: ('A' for Active; 'I' for Inactive)
REMARK    1  A    between atoms: N_4  and  C_5
REMARK    2  A    between atoms: C_5  and  C_6
REMARK    3  A    between atoms: N_8  and  C_12
REMARK    4  A    between atoms: C_15  and  N_18
REMARK                            x       y       z     vdW  Elec       q    Type
REMARK                         _______ _______ _______ _____ _____    ______ ____
ROOT
ATOM      1  C   UNL     1      44.578  79.679  39.706  0.00  0.00    +0.059 A 
ATOM      2  C   UNL     1      44.163  78.635  40.535  0.00  0.00    +0.046 A 
ATOM      3  C   UNL     1      43.154  77.765  40.199  0.00  0.00    +0.155 A 
ATOM      4  C   UNL     1      42.501  77.900  38.999  0.00  0.00    +0.076 A 
ATOM      5  C   UNL     1      42.880  78.914  38.156  0.00  0.00    +0.018 A 
ATOM      6  C   UNL     1      43.895  79.775  38.514  0.00  0.00    +0.016 A 
ATOM      7  F   UNL     1      42.801  76.758  41.052  0.00  0.00    -0.203 F 
ENDROOT
BRANCH   1  10
ATOM      8  C   UNL     1      47.725  81.151  40.818  0.00  0.00    +0.212 C 
ATOM      9  C   UNL     1      46.553  80.289  41.187  0.00  0.00    +0.147 C 
ATOM     10  N   UNL     1      45.626  80.546  40.106  0.00  0.00    -0.221 N 
ATOM     11  C   UNL     1      45.986  81.799  39.566  0.00  0.00    +0.409 C 
ATOM     12  O   UNL     1      45.455  82.433  38.618  0.00  0.00    -0.226 OA
ATOM     13  O   UNL     1      47.102  82.299  40.272  0.00  0.00    -0.434 OA
BRANCH   8  14
ATOM     14  C   UNL     1      48.390  81.589  42.106  0.00  0.00    +0.160 C 
BRANCH  14  18
ATOM     15  C   UNL     1      50.376  84.890  42.556  0.00  0.00    +0.096 C 
ATOM     16  C   UNL     1      49.276  83.883  42.632  0.00  0.00    +0.242 C 
ATOM     17  O   UNL     1      48.295  84.052  43.414  0.00  0.00    -0.273 OA
ATOM     18  N   UNL     1      49.269  82.696  41.841  0.00  0.00    -0.201 NA
ENDBRANCH  14  18
ENDBRANCH   8  14
ENDBRANCH   1  10
BRANCH   4  19
ATOM     19  N   UNL     1      41.422  77.000  38.636  0.00  0.00    -0.301 N 
ATOM     20  C   UNL     1      40.371  77.551  37.840  0.00  0.00    +0.123 C 
ATOM     21  C   UNL     1      39.573  76.549  37.068  0.00  0.00    +0.164 C 
ATOM     22  O   UNL     1      39.878  75.234  37.391  0.00  0.00    -0.350 OA
ATOM     23  C   UNL     1      40.075  75.040  38.733  0.00  0.00    +0.164 C 
ATOM     24  C   UNL     1      41.430  75.623  39.085  0.00  0.00    +0.123 C 
ENDBRANCH   4  19
TORSDOF 4
