REMARK  Name = Liothyronine
REMARK  5 active torsions:
REMARK  status: ('A' for Active; 'I' for Inactive)
REMARK    1  A    between atoms: C_6  and  O_7
REMARK    2  A    between atoms: O_7  and  C_8
REMARK    3  A    between atoms: C_11  and  C_15
REMARK    4  A    between atoms: C_15  and  CA_16
REMARK    5  A    between atoms: CA_16  and  C_17
REMARK                            x       y       z     vdW  Elec       q    Type
REMARK                         _______ _______ _______ _____ _____    ______ ____
ROOT
ATOM      1  C   UNL     1      46.252  81.009  41.011  0.00  0.00    +0.156 A 
ATOM      2  C   UNL     1      46.137  79.892  41.813  0.00  0.00    +0.065 A 
ATOM      3  C   UNL     1      45.443  78.762  41.399  0.00  0.00    +0.005 A 
ATOM      4  C   UNL     1      44.847  78.736  40.156  0.00  0.00    -0.019 A 
ATOM      5  C   UNL     1      44.966  79.870  39.346  0.00  0.00    +0.005 A 
ATOM      6  C   UNL     1      45.660  80.993  39.767  0.00  0.00    +0.065 A 
ATOM      7  I   UNL     1      45.841  82.702  38.548  0.00  0.00    -0.039 I 
ATOM      8  I   UNL     1      47.036  79.910  43.709  0.00  0.00    -0.039 I 
ENDROOT
BRANCH   1   9
ATOM      9  O   UNL     1      46.942  82.142  41.415  0.00  0.00    -0.453 OA
BRANCH   9  15
ATOM     10  C   UNL     1      49.141  81.192  41.136  0.00  0.00    +0.041 A 
ATOM     11  C   UNL     1      50.512  81.249  41.304  0.00  0.00    +0.046 A 
ATOM     12  C   UNL     1      51.087  82.333  41.936  0.00  0.00    +0.201 A 
ATOM     13  C   UNL     1      50.264  83.343  42.386  0.00  0.00    +0.072 A 
ATOM     14  C   UNL     1      48.895  83.269  42.208  0.00  0.00    +0.046 A 
ATOM     15  C   UNL     1      48.303  82.194  41.580  0.00  0.00    +0.146 A 
ATOM     16  I   UNL     1      51.117  85.022  43.360  0.00  0.00    -0.039 I 
ATOM     17  O   UNL     1      52.459  82.428  42.125  0.00  0.00    -0.286 OA
ENDBRANCH   9  15
ENDBRANCH   1   9
BRANCH   4  18
ATOM     18  C   UNL     1      44.097  77.544  39.691  0.00  0.00    +0.057 C 
BRANCH  18  19
ATOM     19  CA  UNL     1      42.614  77.706  39.684  0.00  0.00    +0.199 C 
ATOM     20  N   UNL     1      42.290  78.585  38.548  0.00  0.00    -0.120 NA
BRANCH  19  21
ATOM     21  C   UNL     1      41.939  76.414  39.551  0.00  0.00    +0.382 C 
ATOM     22  O   UNL     1      41.295  76.138  38.522  0.00  0.00    -0.244 OA
ATOM     23  OXT UNL     1      42.036  75.494  40.613  0.00  0.00    -0.244 OA
ENDBRANCH  19  21
ENDBRANCH  18  19
ENDBRANCH   4  18
TORSDOF 5
