REMARK  Name = Liranaftate
REMARK  4 active torsions:
REMARK  status: ('A' for Active; 'I' for Inactive)
REMARK    1  A    between atoms: N_2  and  C_11
REMARK    2  A    between atoms: C_5  and  O_9
REMARK    3  A    between atoms: C_11  and  O_13
REMARK    4  A    between atoms: O_13  and  C_14
REMARK                            x       y       z     vdW  Elec       q    Type
REMARK                         _______ _______ _______ _____ _____    ______ ____
ROOT
ATOM      1  C   UNL     1      45.886  80.916  39.848  0.00  0.00    +0.242 C 
ATOM      2  S   UNL     1      46.084  82.296  39.014  0.00  0.00    +0.007 S 
ENDROOT
BRANCH   1   4
ATOM      3  C   UNL     1      44.120  80.194  38.213  0.00  0.00    +0.122 C 
ATOM      4  N   UNL     1      45.025  79.917  39.324  0.00  0.00    -0.236 N 
ATOM      5  C   UNL     1      45.038  78.613  39.887  0.00  0.00    +0.141 A 
ATOM      6  N   UNL     1      44.266  78.273  40.943  0.00  0.00    -0.196 NA
ATOM      7  C   UNL     1      44.244  77.048  41.495  0.00  0.00    +0.226 A 
ATOM      8  C   UNL     1      45.048  76.043  40.976  0.00  0.00    +0.058 A 
ATOM      9  C   UNL     1      45.852  76.346  39.898  0.00  0.00    +0.008 A 
ATOM     10  C   UNL     1      45.848  77.609  39.363  0.00  0.00    +0.035 A 
BRANCH   7  11
ATOM     11  O   UNL     1      43.407  76.829  42.575  0.00  0.00    -0.456 OA
ATOM     12  C   UNL     1      43.524  77.542  43.792  0.00  0.00    +0.254 C 
ENDBRANCH   7  11
ENDBRANCH   1   4
BRANCH   1  13
ATOM     13  O   UNL     1      46.562  80.748  41.045  0.00  0.00    -0.434 OA
BRANCH  13  14
ATOM     14  C   UNL     1      47.302  81.778  41.563  0.00  0.00    +0.147 A 
ATOM     15  C   UNL     1      48.617  81.936  41.234  0.00  0.00    +0.033 A 
ATOM     16  C   UNL     1      49.329  83.006  41.792  0.00  0.00    -0.023 A 
ATOM     17  C   UNL     1      48.712  83.883  42.659  0.00  0.00    -0.026 A 
ATOM     18  C   UNL     1      49.552  84.979  43.187  0.00  0.00    +0.026 C 
ATOM     19  C   UNL     1      50.792  84.325  43.755  0.00  0.00    +0.005 C 
ATOM     20  C   UNL     1      51.580  83.720  42.624  0.00  0.00    +0.005 C 
ATOM     21  C   UNL     1      50.761  83.223  41.484  0.00  0.00    +0.026 C 
ATOM     22  C   UNL     1      47.393  83.726  42.991  0.00  0.00    -0.001 A 
ATOM     23  C   UNL     1      46.677  82.653  42.432  0.00  0.00    +0.037 A 
ENDBRANCH  13  14
ENDBRANCH   1  13
TORSDOF 4
