REMARK  Name = Lisinopril
REMARK  12 active torsions:
REMARK  status: ('A' for Active; 'I' for Inactive)
REMARK    1  A    between atoms: CA_3  and  C_27
REMARK    2  A    between atoms: C_6  and  CA_8
REMARK    3  A    between atoms: CA_8  and  CB_9
REMARK    4  A    between atoms: CA_8  and  N_14
REMARK    5  A    between atoms: CB_9  and  CG_10
REMARK    6  A    between atoms: CG_10  and  CD_11
REMARK    7  A    between atoms: CD_11  and  CE_12
REMARK    8  A    between atoms: N_14  and  CA_15
REMARK    9  A    between atoms: CA_15  and  C_16
REMARK   10  A    between atoms: CA_15  and  C_24
REMARK   11  A    between atoms: C_16  and  C_17
REMARK   12  A    between atoms: C_17  and  C_18
REMARK                            x       y       z     vdW  Elec       q    Type
REMARK                         _______ _______ _______ _____ _____    ______ ____
ROOT
ATOM      1  CA  UNL     1      45.120  79.034  40.423  0.00  0.00    +0.149 C 
ENDROOT
BRANCH   1   7
ATOM      2  CG  UNL     1      40.631  78.253  40.974  0.00  0.00    +0.024 C 
ATOM      3  CB  UNL     1      40.448  77.922  39.527  0.00  0.00    +0.033 C 
ATOM      4  CA  UNL     1      41.838  77.341  39.182  0.00  0.00    +0.179 C 
ATOM      5  N   UNL     1      42.755  78.160  39.890  0.00  0.00    -0.270 N 
ATOM      6  CD  UNL     1      42.071  78.801  40.979  0.00  0.00    +0.094 C 
ATOM      7  C   UNL     1      44.153  78.303  39.601  0.00  0.00    +0.242 C 
ATOM      8  O   UNL     1      44.534  77.732  38.531  0.00  0.00    -0.273 OA
BRANCH   4   9
ATOM      9  C   UNL     1      41.982  77.331  37.708  0.00  0.00    +0.382 C 
ATOM     10  O   UNL     1      41.755  76.201  37.161  0.00  0.00    -0.244 OA
ATOM     11  OXT UNL     1      42.317  78.350  36.883  0.00  0.00    -0.244 OA
ENDBRANCH   4   9
ENDBRANCH   1   7
BRANCH   1  12
ATOM     12  CB  UNL     1      45.637  78.240  41.564  0.00  0.00    +0.027 C 
BRANCH  12  13
ATOM     13  CG  UNL     1      44.976  77.962  42.810  0.00  0.00    +0.003 C 
BRANCH  13  14
ATOM     14  CD  UNL     1      44.405  76.639  43.174  0.00  0.00    +0.021 C 
BRANCH  14  15
ATOM     15  CE  UNL     1      45.600  75.626  43.008  0.00  0.00    +0.109 C 
ATOM     16  NZ  UNL     1      45.087  74.310  43.321  0.00  0.00    -0.131 NA
ENDBRANCH  14  15
ENDBRANCH  13  14
ENDBRANCH  12  13
ENDBRANCH   1  12
BRANCH   1  17
ATOM     17  N   UNL     1      46.236  79.384  39.549  0.00  0.00    -0.200 NA
BRANCH  17  18
ATOM     18  CA  UNL     1      46.291  80.798  39.205  0.00  0.00    +0.176 C 
BRANCH  18  19
ATOM     19  C   UNL     1      44.963  81.205  38.664  0.00  0.00    +0.380 C 
ATOM     20  O   UNL     1      44.749  82.136  37.879  0.00  0.00    -0.244 OA
ATOM     21  OXT UNL     1      43.819  80.485  39.060  0.00  0.00    -0.244 OA
ENDBRANCH  18  19
BRANCH  18  22
ATOM     22  C   UNL     1      46.624  81.665  40.357  0.00  0.00    +0.034 C 
BRANCH  22  23
ATOM     23  C   UNL     1      48.053  81.626  40.813  0.00  0.00    +0.028 C 
BRANCH  23  24
ATOM     24  C   UNL     1      48.370  82.661  41.840  0.00  0.00    -0.022 A 
ATOM     25  C   UNL     1      47.433  83.473  42.411  0.00  0.00    -0.004 A 
ATOM     26  C   UNL     1      47.752  84.444  43.372  0.00  0.00    -0.000 A 
ATOM     27  C   UNL     1      49.060  84.592  43.761  0.00  0.00    -0.000 A 
ATOM     28  C   UNL     1      50.002  83.761  43.174  0.00  0.00    -0.000 A 
ATOM     29  C   UNL     1      49.701  82.817  42.242  0.00  0.00    -0.004 A 
ENDBRANCH  23  24
ENDBRANCH  22  23
ENDBRANCH  18  22
ENDBRANCH  17  18
ENDBRANCH   1  17
TORSDOF 12
