REMARK  Name = Lmw_heparin
REMARK  10 active torsions:
REMARK  status: ('A' for Active; 'I' for Inactive)
REMARK    1  A    between atoms: C_1  and  C_2
REMARK    2  A    between atoms: C_1  and  O_32
REMARK    3  A    between atoms: C_3  and  O_15
REMARK    4  A    between atoms: C_5  and  N_9
REMARK    5  A    between atoms: N_9  and  S_10
REMARK    6  A    between atoms: O_15  and  C_16
REMARK    7  A    between atoms: C_17  and  O_27
REMARK    8  A    between atoms: C_20  and  C_22
REMARK    9  A    between atoms: O_27  and  S_28
REMARK   10  A    between atoms: O_32  and  S_33
REMARK                            x       y       z     vdW  Elec       q    Type
REMARK                         _______ _______ _______ _____ _____    ______ ____
ROOT
ATOM      1  C   UNL     1      44.283  77.208  41.759  0.00  0.00    +0.180 C 
ATOM      2  C   UNL     1      44.292  78.642  41.204  0.00  0.00    +0.179 C 
ATOM      3  C   UNL     1      44.584  78.500  39.740  0.00  0.00    +0.204 C 
ATOM      4  C   UNL     1      43.511  77.727  39.009  0.00  0.00    +0.191 C 
ATOM      5  C   UNL     1      43.029  76.641  39.907  0.00  0.00    +0.290 C 
ATOM      6  O   UNL     1      44.095  76.286  40.732  0.00  0.00    -0.325 OA
ATOM      7  O   UNL     1      42.014  77.098  40.780  0.00  0.00    -0.188 OA
ATOM      8  O   UNL     1      44.612  79.773  39.177  0.00  0.00    -0.219 OA
ENDROOT
BRANCH   1   9
ATOM      9  C   UNL     1      45.657  76.906  42.342  0.00  0.00    +0.209 C 
BRANCH   9  10
ATOM     10  O   UNL     1      45.593  76.826  43.728  0.00  0.00    -0.198 OA
BRANCH  10  11
ATOM     11  S   UNL     1      45.544  75.265  44.281  0.00  0.00    +0.239 S 
ATOM     12  O   UNL     1      46.111  74.302  43.248  0.00  0.00    -0.116 OA
ATOM     13  O   UNL     1      44.158  74.792  44.592  0.00  0.00    -0.116 OA
ATOM     14  O   UNL     1      46.443  75.106  45.706  0.00  0.00    -0.022 OA
ENDBRANCH  10  11
ENDBRANCH   9  10
ENDBRANCH   1   9
BRANCH   4  15
ATOM     15  N   UNL     1      42.517  78.647  38.568  0.00  0.00    -0.047 NA
BRANCH  15  16
ATOM     16  S   UNL     1      41.370  78.023  37.478  0.00  0.00    +0.197 S 
ATOM     17  O   UNL     1      41.400  76.506  37.625  0.00  0.00    -0.126 OA
ATOM     18  O   UNL     1      39.983  78.445  37.856  0.00  0.00    -0.126 OA
ATOM     19  O   UNL     1      41.725  78.337  35.874  0.00  0.00    -0.031 OA
ENDBRANCH  15  16
ENDBRANCH   4  15
BRANCH   2  20
ATOM     20  O   UNL     1      45.225  79.320  41.933  0.00  0.00    -0.326 OA
BRANCH  20  21
ATOM     21  C   UNL     1      46.197  79.969  41.176  0.00  0.00    +0.269 C 
ATOM     22  C   UNL     1      47.394  80.416  41.923  0.00  0.00    +0.236 C 
ATOM     23  C   UNL     1      48.293  81.208  40.956  0.00  0.00    +0.220 C 
ATOM     24  C   UNL     1      47.478  82.414  40.572  0.00  0.00    +0.223 C 
ATOM     25  C   UNL     1      46.205  81.982  39.969  0.00  0.00    +0.253 C 
ATOM     26  O   UNL     1      45.563  80.902  40.424  0.00  0.00    -0.317 OA
ATOM     27  O   UNL     1      48.161  83.220  39.642  0.00  0.00    -0.217 OA
ATOM     28  O   UNL     1      48.578  80.431  39.860  0.00  0.00    -0.217 OA
BRANCH  25  29
ATOM     29  C   UNL     1      46.343  81.852  38.485  0.00  0.00    +0.394 C 
ATOM     30  O   UNL     1      45.607  81.171  37.756  0.00  0.00    -0.243 OA
ATOM     31  O   UNL     1      47.404  82.575  37.905  0.00  0.00    -0.243 OA
ENDBRANCH  25  29
BRANCH  22  32
ATOM     32  O   UNL     1      48.161  79.376  42.383  0.00  0.00    -0.195 OA
BRANCH  32  33
ATOM     33  S   UNL     1      49.477  79.872  43.289  0.00  0.00    +0.239 S 
ATOM     34  O   UNL     1      50.740  79.745  42.516  0.00  0.00    -0.116 OA
ATOM     35  O   UNL     1      49.569  79.131  44.592  0.00  0.00    -0.116 OA
ATOM     36  O   UNL     1      49.253  81.498  43.662  0.00  0.00    -0.022 OA
ENDBRANCH  32  33
ENDBRANCH  22  32
ENDBRANCH  20  21
ENDBRANCH   2  20
TORSDOF 10
