REMARK  Name = Lobeglitazone
REMARK  10 active torsions:
REMARK  status: ('A' for Active; 'I' for Inactive)
REMARK    1  A    between atoms: N_2  and  C_3
REMARK    2  A    between atoms: N_2  and  C_20
REMARK    3  A    between atoms: C_3  and  C_4
REMARK    4  A    between atoms: C_4  and  O_5
REMARK    5  A    between atoms: O_5  and  C_6
REMARK    6  A    between atoms: C_9  and  C_12
REMARK    7  A    between atoms: C_12  and  C_13
REMARK    8  A    between atoms: C_22  and  O_26
REMARK    9  A    between atoms: O_26  and  C_27
REMARK   10  A    between atoms: C_30  and  O_33
REMARK                            x       y       z     vdW  Elec       q    Type
REMARK                         _______ _______ _______ _____ _____    ______ ____
ROOT
ATOM      1  C   UNL     1      43.737  80.673  37.717  0.00  0.00    +0.114 C 
ATOM      2  N   UNL     1      44.213  79.612  38.611  0.00  0.00    -0.288 N 
ENDROOT
BRANCH   2   3
ATOM      3  C   UNL     1      43.346  78.545  38.900  0.00  0.00    +0.138 A 
ATOM      4  C   UNL     1      42.105  78.352  38.335  0.00  0.00    +0.092 A 
ATOM      5  C   UNL     1      41.303  77.273  38.663  0.00  0.00    +0.234 A 
ATOM      6  N   UNL     1      41.783  76.400  39.570  0.00  0.00    -0.189 NA
ATOM      7  C   UNL     1      42.986  76.558  40.140  0.00  0.00    +0.203 A 
ATOM      8  N   UNL     1      43.738  77.607  39.804  0.00  0.00    -0.209 NA
BRANCH   5   9
ATOM      9  O   UNL     1      40.073  77.162  38.044  0.00  0.00    -0.436 OA
BRANCH   9  10
ATOM     10  C   UNL     1      39.544  75.898  37.824  0.00  0.00    +0.147 A 
ATOM     11  C   UNL     1      39.740  75.243  36.618  0.00  0.00    +0.041 A 
ATOM     12  C   UNL     1      39.212  73.980  36.398  0.00  0.00    +0.040 A 
ATOM     13  C   UNL     1      38.473  73.328  37.362  0.00  0.00    +0.139 A 
ATOM     14  C   UNL     1      38.276  73.976  38.561  0.00  0.00    +0.040 A 
ATOM     15  C   UNL     1      38.809  75.251  38.785  0.00  0.00    +0.041 A 
BRANCH  13  16
ATOM     16  O   UNL     1      37.943  72.050  37.129  0.00  0.00    -0.471 OA
ATOM     17  C   UNL     1      38.597  70.876  37.495  0.00  0.00    +0.252 C 
ENDBRANCH  13  16
ENDBRANCH   9  10
ENDBRANCH   5   9
ENDBRANCH   2   3
BRANCH   2  18
ATOM     18  C   UNL     1      45.546  79.743  39.137  0.00  0.00    +0.140 C 
BRANCH  18  19
ATOM     19  C   UNL     1      45.530  80.192  40.589  0.00  0.00    +0.227 C 
BRANCH  19  20
ATOM     20  O   UNL     1      45.905  81.529  40.726  0.00  0.00    -0.474 OA
BRANCH  20  21
ATOM     21  C   UNL     1      46.946  81.975  41.513  0.00  0.00    +0.139 A 
ATOM     22  C   UNL     1      48.071  81.227  41.759  0.00  0.00    +0.037 A 
ATOM     23  C   UNL     1      49.110  81.694  42.555  0.00  0.00    -0.001 A 
ATOM     24  C   UNL     1      49.045  82.928  43.125  0.00  0.00    -0.021 A 
ATOM     25  C   UNL     1      47.909  83.700  42.884  0.00  0.00    -0.001 A 
ATOM     26  C   UNL     1      46.882  83.240  42.099  0.00  0.00    +0.037 A 
BRANCH  24  27
ATOM     27  C   UNL     1      50.100  83.504  43.984  0.00  0.00    +0.047 C 
BRANCH  27  28
ATOM     28  C   UNL     1      51.091  84.199  43.082  0.00  0.00    +0.139 C 
ATOM     29  C   UNL     1      52.503  83.903  43.443  0.00  0.00    +0.259 C 
ATOM     30  O   UNL     1      52.816  83.668  44.661  0.00  0.00    -0.272 OA
ATOM     31  N   UNL     1      53.376  83.915  42.351  0.00  0.00    -0.135 NA
ATOM     32  C   UNL     1      52.825  83.397  41.160  0.00  0.00    +0.299 C 
ATOM     33  O   UNL     1      53.429  82.980  40.165  0.00  0.00    -0.261 OA
ATOM     34  S   UNL     1      51.058  83.468  41.391  0.00  0.00    -0.046 S 
ENDBRANCH  27  28
ENDBRANCH  24  27
ENDBRANCH  20  21
ENDBRANCH  19  20
ENDBRANCH  18  19
ENDBRANCH   2  18
TORSDOF 10
