REMARK  Name = Lodoxamide
REMARK  5 active torsions:
REMARK  status: ('A' for Active; 'I' for Inactive)
REMARK    1  A    between atoms: C_2  and  C_20
REMARK    2  A    between atoms: C_4  and  N_14
REMARK    3  A    between atoms: C_6  and  N_7
REMARK    4  A    between atoms: C_8  and  C_10
REMARK    5  A    between atoms: C_15  and  C_17
REMARK                            x       y       z     vdW  Elec       q    Type
REMARK                         _______ _______ _______ _____ _____    ______ ____
ROOT
ATOM      1  C   UNL     1      48.580  83.137  42.483  0.00  0.00    +0.028 A 
ATOM      2  C   UNL     1      47.273  83.591  42.325  0.00  0.00    +0.071 A 
ATOM      3  C   UNL     1      46.322  82.812  41.714  0.00  0.00    +0.028 A 
ATOM      4  C   UNL     1      46.673  81.568  41.254  0.00  0.00    +0.086 A 
ATOM      5  C   UNL     1      47.972  81.144  41.423  0.00  0.00    +0.088 A 
ATOM      6  C   UNL     1      48.967  81.899  42.036  0.00  0.00    +0.086 A 
ATOM      7 CL   UNL     1      48.412  79.544  40.828  0.00  0.00    -0.080 Cl
ENDROOT
BRANCH   6   8
ATOM      8  N   UNL     1      50.268  81.351  42.150  0.00  0.00    -0.169 NA
ATOM      9  C   UNL     1      51.425  81.997  42.592  0.00  0.00    +0.349 C 
ATOM     10  O   UNL     1      51.391  83.192  42.928  0.00  0.00    -0.261 OA
BRANCH   9  11
ATOM     11  C   UNL     1      52.693  81.222  42.651  0.00  0.00    +0.442 C 
ATOM     12  O   UNL     1      53.630  81.701  43.317  0.00  0.00    -0.235 OA
ATOM     13  O   UNL     1      52.860  80.027  42.011  0.00  0.00    -0.235 OA
ENDBRANCH   9  11
ENDBRANCH   6   8
BRANCH   4  14
ATOM     14  N   UNL     1      45.728  80.722  40.614  0.00  0.00    -0.169 NA
ATOM     15  C   UNL     1      45.145  81.132  39.387  0.00  0.00    +0.349 C 
ATOM     16  O   UNL     1      45.456  82.252  38.913  0.00  0.00    -0.261 OA
BRANCH  15  17
ATOM     17  C   UNL     1      44.208  80.237  38.727  0.00  0.00    +0.442 C 
ATOM     18  O   UNL     1      44.010  79.070  39.150  0.00  0.00    -0.235 OA
ATOM     19  O   UNL     1      43.491  80.626  37.603  0.00  0.00    -0.235 OA
ENDBRANCH  15  17
ENDBRANCH   4  14
BRANCH   2  20
ATOM     20  C   UNL     1      46.983  84.904  42.833  0.00  0.00    +0.100 C 
ATOM     21  N   UNL     1      46.730  85.963  43.236  0.00  0.00    -0.191 NA
ENDBRANCH   2  20
TORSDOF 5
