REMARK  Name = Lofepramine
REMARK  7 active torsions:
REMARK  status: ('A' for Active; 'I' for Inactive)
REMARK    1  A    between atoms: N_2  and  C_3
REMARK    2  A    between atoms: N_2  and  C_21
REMARK    3  A    between atoms: C_3  and  C_4
REMARK    4  A    between atoms: C_4  and  C_5
REMARK    5  A    between atoms: C_5  and  N_6
REMARK    6  A    between atoms: C_21  and  C_22
REMARK    7  A    between atoms: C_22  and  C_24
REMARK                            x       y       z     vdW  Elec       q    Type
REMARK                         _______ _______ _______ _____ _____    ______ ____
ROOT
ATOM      1  C   UNL     1      44.620  76.709  39.687  0.00  0.00    +0.097 C 
ENDROOT
BRANCH   1   2
ATOM      2  N   UNL     1      43.317  76.284  40.048  0.00  0.00    -0.287 N 
ATOM      3  C   UNL     1      43.229  75.568  41.302  0.00  0.00    +0.048 A 
ATOM      4  C   UNL     1      44.111  76.041  42.217  0.00  0.00    +0.015 A 
ATOM      5  C   UNL     1      44.142  75.479  43.469  0.00  0.00    +0.001 A 
ATOM      6  C   UNL     1      43.260  74.432  43.762  0.00  0.00    -0.000 A 
ATOM      7  C   UNL     1      42.380  73.982  42.801  0.00  0.00    -0.003 A 
ATOM      8  C   UNL     1      42.340  74.549  41.520  0.00  0.00    -0.008 A 
ATOM      9  C   UNL     1      41.342  73.879  40.674  0.00  0.00    +0.032 C 
ATOM     10  C   UNL     1      40.471  74.699  39.821  0.00  0.00    +0.032 C 
ATOM     11  C   UNL     1      41.037  75.861  39.130  0.00  0.00    -0.008 A 
ATOM     12  C   UNL     1      40.096  76.337  38.213  0.00  0.00    -0.003 A 
ATOM     13  C   UNL     1      40.343  77.447  37.437  0.00  0.00    -0.000 A 
ATOM     14  C   UNL     1      41.530  78.133  37.536  0.00  0.00    +0.001 A 
ATOM     15  C   UNL     1      42.490  77.703  38.427  0.00  0.00    +0.015 A 
ATOM     16  C   UNL     1      42.205  76.591  39.181  0.00  0.00    +0.048 A 
ENDBRANCH   1   2
BRANCH   1  17
ATOM     17  C   UNL     1      45.031  77.987  40.445  0.00  0.00    +0.039 C 
BRANCH  17  18
ATOM     18  C   UNL     1      44.391  79.235  39.947  0.00  0.00    +0.074 C 
BRANCH  18  20
ATOM     19  C   UNL     1      45.513  80.612  38.267  0.00  0.00    +0.090 C 
ATOM     20  N   UNL     1      45.196  80.322  39.615  0.00  0.00    -0.265 NA
BRANCH  20  21
ATOM     21  C   UNL     1      46.099  80.790  40.588  0.00  0.00    +0.142 C 
BRANCH  21  22
ATOM     22  C   UNL     1      46.855  81.988  40.282  0.00  0.00    +0.189 C 
ATOM     23  O   UNL     1      46.711  82.486  39.080  0.00  0.00    -0.290 OA
BRANCH  22  24
ATOM     24  C   UNL     1      47.764  82.715  41.141  0.00  0.00    +0.036 A 
ATOM     25  C   UNL     1      47.290  83.406  42.259  0.00  0.00    +0.004 A 
ATOM     26  C   UNL     1      48.135  84.124  43.063  0.00  0.00    +0.011 A 
ATOM     27  C   UNL     1      49.492  84.213  42.829  0.00  0.00    +0.058 A 
ATOM     28  C   UNL     1      49.975  83.537  41.731  0.00  0.00    +0.011 A 
ATOM     29  C   UNL     1      49.111  82.802  40.907  0.00  0.00    +0.004 A 
ATOM     30 CL   UNL     1      50.578  85.123  43.842  0.00  0.00    -0.082 Cl
ENDBRANCH  22  24
ENDBRANCH  21  22
ENDBRANCH  20  21
ENDBRANCH  18  20
ENDBRANCH  17  18
ENDBRANCH   1  17
TORSDOF 7
