REMARK  Name = LOMERIZINE
REMARK  8 active torsions:
REMARK  status: ('A' for Active; 'I' for Inactive)
REMARK    1  A    between atoms: O_2  and  C_3
REMARK    2  A    between atoms: C_4  and  O_33
REMARK    3  A    between atoms: C_5  and  O_31
REMARK    4  A    between atoms: C_6  and  C_9
REMARK    5  A    between atoms: C_9  and  N_10
REMARK    6  A    between atoms: N_13  and  C_16
REMARK    7  A    between atoms: C_16  and  C_17
REMARK    8  A    between atoms: C_16  and  C_24
REMARK                            x       y       z     vdW  Elec       q    Type
REMARK                         _______ _______ _______ _____ _____    ______ ____
ROOT
ATOM      1  N   UNL     1      44.071  79.264  40.328  0.00  0.00    -0.266 NA
ATOM      2  C   UNL     1      45.176  79.005  39.453  0.00  0.00    +0.090 C 
ATOM      3  C   UNL     1      46.515  78.935  40.206  0.00  0.00    +0.090 C 
ATOM      4  N   UNL     1      46.746  80.114  40.931  0.00  0.00    -0.264 NA
ATOM      5  C   UNL     1      45.600  80.888  41.282  0.00  0.00    +0.090 C 
ATOM      6  C   UNL     1      44.436  79.948  41.545  0.00  0.00    +0.090 C 
ENDROOT
BRANCH   1   7
ATOM      7  C   UNL     1      43.290  78.069  40.601  0.00  0.00    +0.102 C 
BRANCH   7  11
ATOM      8  C   UNL     1      40.735  76.945  37.350  0.00  0.00    +0.175 A 
ATOM      9  C   UNL     1      41.264  76.018  38.240  0.00  0.00    +0.206 A 
ATOM     10  C   UNL     1      42.086  76.396  39.281  0.00  0.00    +0.173 A 
ATOM     11  C   UNL     1      42.404  77.724  39.464  0.00  0.00    +0.031 A 
ATOM     12  C   UNL     1      41.890  78.678  38.589  0.00  0.00    +0.003 A 
ATOM     13  C   UNL     1      41.070  78.267  37.555  0.00  0.00    +0.040 A 
BRANCH   8  15
ATOM     14  C   UNL     1      39.246  77.455  35.488  0.00  0.00    +0.253 C 
ATOM     15  O   UNL     1      39.910  76.542  36.309  0.00  0.00    -0.468 OA
ENDBRANCH   8  15
BRANCH  10  16
ATOM     16  O   UNL     1      42.575  75.416  40.128  0.00  0.00    -0.469 OA
ATOM     17  C   UNL     1      41.804  75.004  41.226  0.00  0.00    +0.253 C 
ENDBRANCH  10  16
BRANCH   9  18
ATOM     18  O   UNL     1      40.961  74.663  38.084  0.00  0.00    -0.465 OA
ATOM     19  C   UNL     1      41.910  73.736  37.584  0.00  0.00    +0.253 C 
ENDBRANCH   9  18
ENDBRANCH   7  11
ENDBRANCH   1   7
BRANCH   4  20
ATOM     20  C   UNL     1      47.982  80.763  40.914  0.00  0.00    +0.103 C 
BRANCH  20  21
ATOM     21  C   UNL     1      49.159  79.929  41.290  0.00  0.00    -0.003 A 
ATOM     22  C   UNL     1      49.352  78.702  40.736  0.00  0.00    -0.000 A 
ATOM     23  C   UNL     1      50.465  77.954  41.112  0.00  0.00    +0.029 A 
ATOM     24  C   UNL     1      51.365  78.447  42.035  0.00  0.00    +0.140 A 
ATOM     25  C   UNL     1      51.157  79.694  42.590  0.00  0.00    +0.029 A 
ATOM     26  C   UNL     1      50.060  80.409  42.206  0.00  0.00    -0.000 A 
ATOM     27  F   UNL     1      52.436  77.711  42.387  0.00  0.00    -0.204 F 
ENDBRANCH  20  21
BRANCH  20  28
ATOM     28  C   UNL     1      47.999  82.006  41.715  0.00  0.00    -0.003 A 
ATOM     29  C   UNL     1      47.405  81.985  42.976  0.00  0.00    -0.000 A 
ATOM     30  C   UNL     1      47.373  83.090  43.761  0.00  0.00    +0.029 A 
ATOM     31  C   UNL     1      47.933  84.273  43.324  0.00  0.00    +0.140 A 
ATOM     32  C   UNL     1      48.526  84.327  42.087  0.00  0.00    +0.029 A 
ATOM     33  C   UNL     1      48.553  83.190  41.291  0.00  0.00    -0.000 A 
ATOM     34  F   UNL     1      47.929  85.412  44.069  0.00  0.00    -0.204 F 
ENDBRANCH  20  28
ENDBRANCH   4  20
TORSDOF 8
