REMARK  Name = Lomustine
REMARK  4 active torsions:
REMARK  status: ('A' for Active; 'I' for Inactive)
REMARK    1  A    between atoms: C_4  and  N_7
REMARK    2  A    between atoms: N_10  and  C_11
REMARK    3  A    between atoms: N_10  and  N_14
REMARK    4  A    between atoms: C_11  and  C_12
REMARK                            x       y       z     vdW  Elec       q    Type
REMARK                         _______ _______ _______ _____ _____    ______ ____
ROOT
ATOM      1  N   UNL     1      47.179  82.266  40.804  0.00  0.00    -0.189 NA
ATOM      2  C   UNL     1      46.563  80.986  40.799  0.00  0.00    +0.345 C 
ATOM      3  O   UNL     1      46.880  80.220  41.719  0.00  0.00    -0.249 OA
ATOM      4  N   UNL     1      45.639  80.656  39.768  0.00  0.00    -0.127 N 
ENDROOT
BRANCH   1   8
ATOM      5  C   UNL     1      49.975  84.159  43.396  0.00  0.00    +0.000 C 
ATOM      6  C   UNL     1      50.375  83.577  42.042  0.00  0.00    +0.002 C 
ATOM      7  C   UNL     1      49.488  82.400  41.681  0.00  0.00    +0.022 C 
ATOM      8  C   UNL     1      48.053  82.724  41.832  0.00  0.00    +0.097 C 
ATOM      9  C   UNL     1      47.925  84.226  42.089  0.00  0.00    +0.022 C 
ATOM     10  C   UNL     1      48.496  84.433  43.478  0.00  0.00    +0.002 C 
ENDBRANCH   1   8
BRANCH   4  11
ATOM     11  N   UNL     1      45.520  81.450  38.641  0.00  0.00    +0.053 NA
ATOM     12  O   UNL     1      45.912  82.627  38.553  0.00  0.00    -0.126 OA
ENDBRANCH   4  11
BRANCH   4  13
ATOM     13  C   UNL     1      44.794  79.483  39.861  0.00  0.00    +0.141 C 
BRANCH  13  14
ATOM     14  C   UNL     1      43.905  79.494  38.624  0.00  0.00    +0.119 C 
ATOM     15 CL   UNL     1      42.783  78.129  38.721  0.00  0.00    -0.112 Cl
ENDBRANCH  13  14
ENDBRANCH   4  13
TORSDOF 4
