REMARK  Name = Lonafarnib
REMARK  3 active torsions:
REMARK  status: ('A' for Active; 'I' for Inactive)
REMARK    1  A    between atoms: C_6  and  C_7
REMARK    2  A    between atoms: C_7  and  C_8
REMARK    3  A    between atoms: C_13  and  C_16
REMARK                            x       y       z     vdW  Elec       q    Type
REMARK                         _______ _______ _______ _____ _____    ______ ____
ROOT
ATOM      1  C   UNL     1      43.277  79.551  39.597  0.00  0.00    +0.226 C 
ATOM      2  O   UNL     1      43.255  80.598  38.894  0.00  0.00    -0.275 OA
ATOM      3  N   UNL     1      44.471  78.798  39.746  0.00  0.00    -0.280 N 
ATOM      4  C   UNL     1      44.677  77.876  40.849  0.00  0.00    +0.093 C 
ATOM      5  C   UNL     1      46.260  77.875  40.999  0.00  0.00    +0.022 C 
ATOM      6  C   UNL     1      46.708  79.235  40.922  0.00  0.00    +0.013 C 
ATOM      7  C   UNL     1      46.812  79.488  39.359  0.00  0.00    +0.022 C 
ATOM      8  C   UNL     1      45.531  78.937  38.782  0.00  0.00    +0.093 C 
ENDROOT
BRANCH   6   9
ATOM      9  C   UNL     1      47.733  80.031  41.471  0.00  0.00    +0.062 C 
ATOM     10  C   UNL     1      47.862  81.463  41.689  0.00  0.00    -0.015 A 
ATOM     11  C   UNL     1      48.492  82.001  42.851  0.00  0.00    -0.024 A 
ATOM     12  C   UNL     1      49.143  81.216  43.981  0.00  0.00    +0.031 C 
ATOM     13  C   UNL     1      50.246  80.356  43.505  0.00  0.00    +0.032 C 
ATOM     14  C   UNL     1      50.165  79.796  42.142  0.00  0.00    -0.007 A 
ATOM     15  C   UNL     1      49.165  79.602  41.217  0.00  0.00    +0.059 A 
ATOM     16  N   UNL     1      49.376  79.045  40.031  0.00  0.00    -0.248 NA
ATOM     17  C   UNL     1      50.594  78.630  39.650  0.00  0.00    +0.105 A 
ATOM     18  C   UNL     1      51.638  78.794  40.523  0.00  0.00    +0.053 A 
ATOM     19  C   UNL     1      51.451  79.361  41.745  0.00  0.00    +0.005 A 
ATOM     20 BR   UNL     1      53.412  78.221  40.042  0.00  0.00    -0.047 Br
ATOM     21  C   UNL     1      48.605  83.347  43.048  0.00  0.00    +0.007 A 
ATOM     22  C   UNL     1      48.102  84.213  42.105  0.00  0.00    +0.058 A 
ATOM     23  C   UNL     1      47.496  83.691  40.983  0.00  0.00    +0.018 A 
ATOM     24  C   UNL     1      47.374  82.307  40.768  0.00  0.00    +0.031 A 
ATOM     25 BR   UNL     1      46.561  81.822  39.120  0.00  0.00    -0.049 Br
ATOM     26 CL   UNL     1      48.235  85.939  42.338  0.00  0.00    -0.082 Cl
ENDBRANCH   6   9
BRANCH   1  27
ATOM     27  C   UNL     1      42.045  79.113  40.268  0.00  0.00    +0.085 C 
BRANCH  27  33
ATOM     28  C   UNL     1      41.427  78.536  37.974  0.00  0.00    +0.022 C 
ATOM     29  C   UNL     1      41.546  77.284  37.122  0.00  0.00    +0.095 C 
ATOM     30  N   UNL     1      40.653  76.295  37.676  0.00  0.00    -0.262 N 
ATOM     31  C   UNL     1      40.935  75.757  38.985  0.00  0.00    +0.095 C 
ATOM     32  C   UNL     1      41.807  76.756  39.722  0.00  0.00    +0.022 C 
ATOM     33  C   UNL     1      41.273  78.141  39.406  0.00  0.00    +0.012 C 
ATOM     34  C   UNL     1      39.518  75.848  36.967  0.00  0.00    +0.343 C 
ATOM     35  O   UNL     1      38.627  75.137  37.533  0.00  0.00    -0.249 OA
ATOM     36  N   UNL     1      39.326  76.174  35.597  0.00  0.00    -0.069 NA
ENDBRANCH  27  33
ENDBRANCH   1  27
TORSDOF 3
