REMARK  Name = Lopinavir
REMARK  15 active torsions:
REMARK  status: ('A' for Active; 'I' for Inactive)
REMARK    1  A    between atoms: C_3  and  O_9
REMARK    2  A    between atoms: O_9  and  C_10
REMARK    3  A    between atoms: C_10  and  C_11
REMARK    4  A    between atoms: N_13  and  C_14
REMARK    5  A    between atoms: C_14  and  C_15
REMARK    6  A    between atoms: C_14  and  C_22
REMARK    7  A    between atoms: C_15  and  C_16
REMARK    8  A    between atoms: C_22  and  C_23
REMARK    9  A    between atoms: C_23  and  C_24
REMARK   10  A    between atoms: C_24  and  C_25
REMARK   11  A    between atoms: C_24  and  N_32
REMARK   12  A    between atoms: C_25  and  C_26
REMARK   13  A    between atoms: C_33  and  C_35
REMARK   14  A    between atoms: C_35  and  C_36
REMARK   15  A    between atoms: C_35  and  N_39
REMARK                            x       y       z     vdW  Elec       q    Type
REMARK                         _______ _______ _______ _____ _____    ______ ____
ROOT
ATOM      1  C   UNL     1      46.095  78.672  44.789  0.00  0.00    +0.174 C 
ATOM      2  O   UNL     1      45.070  79.411  44.200  0.00  0.00    -0.221 OA
ENDROOT
BRANCH   1   3
ATOM      3  C   UNL     1      45.828  77.197  44.702  0.00  0.00    +0.130 C 
BRANCH   3   6
ATOM      4  C   UNL     1      45.336  76.169  46.967  0.00  0.00    +0.286 C 
ATOM      5  O   UNL     1      46.444  75.621  46.985  0.00  0.00    -0.269 OA
ATOM      6  N   UNL     1      44.946  76.894  45.858  0.00  0.00    -0.201 NA
BRANCH   4   7
ATOM      7  C   UNL     1      44.466  76.019  48.184  0.00  0.00    +0.291 C 
BRANCH   7   8
ATOM      8  O   UNL     1      44.849  75.321  49.207  0.00  0.00    -0.466 OA
BRANCH   8  11
ATOM      9  C   UNL     1      46.310  76.789  51.120  0.00  0.00    +0.034 C 
ATOM     10  C   UNL     1      45.880  75.378  51.302  0.00  0.00    +0.012 A 
ATOM     11  C   UNL     1      45.150  74.701  50.302  0.00  0.00    +0.131 A 
ATOM     12  C   UNL     1      44.784  73.378  50.533  0.00  0.00    +0.012 A 
ATOM     13  C   UNL     1      45.148  72.784  51.734  0.00  0.00    -0.001 A 
ATOM     14  C   UNL     1      45.858  73.476  52.680  0.00  0.00    -0.000 A 
ATOM     15  C   UNL     1      46.226  74.772  52.471  0.00  0.00    -0.001 A 
ATOM     16  C   UNL     1      44.050  72.550  49.513  0.00  0.00    +0.034 C 
ENDBRANCH   8  11
ENDBRANCH   7   8
ENDBRANCH   4   7
ENDBRANCH   3   6
BRANCH   3  17
ATOM     17  C   UNL     1      45.134  76.770  43.468  0.00  0.00    +0.051 C 
BRANCH  17  18
ATOM     18  C   UNL     1      44.801  75.350  43.289  0.00  0.00    -0.020 A 
ATOM     19  C   UNL     1      45.667  74.425  42.758  0.00  0.00    -0.004 A 
ATOM     20  C   UNL     1      45.317  73.098  42.612  0.00  0.00    -0.000 A 
ATOM     21  C   UNL     1      44.053  72.644  43.005  0.00  0.00    -0.000 A 
ATOM     22  C   UNL     1      43.203  73.580  43.534  0.00  0.00    -0.000 A 
ATOM     23  C   UNL     1      43.561  74.890  43.672  0.00  0.00    -0.004 A 
ENDBRANCH  17  18
ENDBRANCH   3  17
ENDBRANCH   1   3
BRANCH   1  24
ATOM     24  C   UNL     1      47.348  79.088  44.081  0.00  0.00    +0.057 C 
BRANCH  24  25
ATOM     25  C   UNL     1      47.613  80.437  43.638  0.00  0.00    +0.102 C 
BRANCH  25  26
ATOM     26  N   UNL     1      46.621  80.893  42.684  0.00  0.00    -0.205 NA
ATOM     27  C   UNL     1      46.187  80.152  41.544  0.00  0.00    +0.259 C 
ATOM     28  O   UNL     1      45.509  79.150  41.804  0.00  0.00    -0.272 OA
BRANCH  27  29
ATOM     29  C   UNL     1      46.473  80.476  40.150  0.00  0.00    +0.155 C 
BRANCH  29  30
ATOM     30  N   UNL     1      45.357  80.435  39.252  0.00  0.00    -0.256 N 
ATOM     31  C   UNL     1      44.975  79.205  38.571  0.00  0.00    +0.097 C 
ATOM     32  C   UNL     1      43.523  79.111  38.246  0.00  0.00    +0.045 C 
ATOM     33  C   UNL     1      42.634  80.112  38.897  0.00  0.00    +0.119 C 
ATOM     34  N   UNL     1      43.194  81.440  38.601  0.00  0.00    -0.188 NA
ATOM     35  C   UNL     1      44.553  81.600  39.000  0.00  0.00    +0.324 C 
ATOM     36  O   UNL     1      45.083  82.728  39.142  0.00  0.00    -0.251 OA
ENDBRANCH  29  30
BRANCH  29  37
ATOM     37  C   UNL     1      47.704  79.758  39.667  0.00  0.00    +0.027 C 
ATOM     38  C   UNL     1      48.941  79.982  40.470  0.00  0.00    +0.002 C 
ATOM     39  C   UNL     1      47.984  79.903  38.202  0.00  0.00    +0.002 C 
ENDBRANCH  29  37
ENDBRANCH  27  29
ENDBRANCH  25  26
BRANCH  25  40
ATOM     40  C   UNL     1      48.957  80.986  43.443  0.00  0.00    +0.048 C 
BRANCH  40  41
ATOM     41  C   UNL     1      49.170  82.434  43.465  0.00  0.00    -0.020 A 
ATOM     42  C   UNL     1      50.437  82.941  43.255  0.00  0.00    -0.004 A 
ATOM     43  C   UNL     1      50.717  84.307  43.234  0.00  0.00    -0.000 A 
ATOM     44  C   UNL     1      49.691  85.186  43.433  0.00  0.00    -0.000 A 
ATOM     45  C   UNL     1      48.425  84.692  43.644  0.00  0.00    -0.000 A 
ATOM     46  C   UNL     1      48.164  83.358  43.660  0.00  0.00    -0.004 A 
ENDBRANCH  40  41
ENDBRANCH  25  40
ENDBRANCH  24  25
ENDBRANCH   1  24
TORSDOF 15
