REMARK  Name = Lorazepam
REMARK  1 active torsions:
REMARK  status: ('A' for Active; 'I' for Inactive)
REMARK    1  A    between atoms: C_5  and  C_7
REMARK                            x       y       z     vdW  Elec       q    Type
REMARK                         _______ _______ _______ _____ _____    ______ ____
ROOT
ATOM      1  C   UNL     1      45.872  79.549  40.394  0.00  0.00    +0.081 C 
ATOM      2  N   UNL     1      45.194  79.561  39.295  0.00  0.00    -0.233 NA
ATOM      3  C   UNL     1      45.206  80.406  38.121  0.00  0.00    +0.333 C 
ATOM      4  C   UNL     1      45.401  81.834  38.461  0.00  0.00    +0.300 C 
ATOM      5  O   UNL     1      44.611  82.641  37.923  0.00  0.00    -0.268 OA
ATOM      6  N   UNL     1      46.369  82.424  39.320  0.00  0.00    -0.175 NA
ATOM      7  C   UNL     1      47.167  81.758  40.317  0.00  0.00    +0.075 A 
ATOM      8  C   UNL     1      46.945  80.478  40.794  0.00  0.00    +0.034 A 
ATOM      9  C   UNL     1      47.768  79.925  41.752  0.00  0.00    +0.014 A 
ATOM     10  C   UNL     1      48.828  80.695  42.224  0.00  0.00    +0.058 A 
ATOM     11  C   UNL     1      49.062  81.983  41.753  0.00  0.00    +0.013 A 
ATOM     12  C   UNL     1      48.220  82.505  40.795  0.00  0.00    +0.018 A 
ATOM     13 CL   UNL     1      49.900  80.043  43.437  0.00  0.00    -0.082 Cl
ATOM     14  O   UNL     1      43.972  80.260  37.482  0.00  0.00    -0.186 OA
ENDROOT
BRANCH   1  19
ATOM     15  C   UNL     1      44.509  77.912  43.447  0.00  0.00    +0.000 A 
ATOM     16  C   UNL     1      45.027  76.646  43.294  0.00  0.00    +0.001 A 
ATOM     17  C   UNL     1      45.817  76.323  42.204  0.00  0.00    +0.011 A 
ATOM     18  C   UNL     1      46.107  77.266  41.237  0.00  0.00    +0.059 A 
ATOM     19  C   UNL     1      45.588  78.520  41.396  0.00  0.00    +0.028 A 
ATOM     20  C   UNL     1      44.799  78.860  42.477  0.00  0.00    +0.002 A 
ATOM     21 CL   UNL     1      47.112  76.859  39.847  0.00  0.00    -0.082 Cl
ENDBRANCH   1  19
TORSDOF 1
