REMARK  Name = Loracarbef
REMARK  4 active torsions:
REMARK  status: ('A' for Active; 'I' for Inactive)
REMARK    1  A    between atoms: CA_4  and  C_21
REMARK    2  A    between atoms: CA_7  and  N_10
REMARK    3  A    between atoms: C_11  and  CA_13
REMARK    4  A    between atoms: CA_13  and  C_14
REMARK                            x       y       z     vdW  Elec       q    Type
REMARK                         _______ _______ _______ _____ _____    ______ ____
ROOT
ATOM      1  C   UNL     1      45.935  78.845  41.317  0.00  0.00    +0.028 C 
ATOM      2  C   UNL     1      46.656  79.929  42.081  0.00  0.00    +0.041 C 
ATOM      3  C   UNL     1      47.156  80.931  41.135  0.00  0.00    +0.056 C 
ATOM      4  CA  UNL     1      46.486  81.197  40.018  0.00  0.00    +0.141 C 
ATOM      5  N   UNL     1      45.283  80.524  39.717  0.00  0.00    -0.251 N 
ATOM      6  C   UNL     1      44.746  79.528  40.661  0.00  0.00    +0.109 C 
ATOM      7  CA  UNL     1      44.220  78.852  39.415  0.00  0.00    +0.190 C 
ATOM      8  C   UNL     1      44.167  80.243  38.899  0.00  0.00    +0.251 C 
ATOM      9  O   UNL     1      43.496  80.951  38.110  0.00  0.00    -0.273 OA
ATOM     10 CL   UNL     1      48.647  81.764  41.507  0.00  0.00    -0.085 Cl
ENDROOT
BRANCH   7  11
ATOM     11  N   UNL     1      42.928  78.260  39.696  0.00  0.00    -0.195 NA
ATOM     12  C   UNL     1      42.704  76.857  39.504  0.00  0.00    +0.263 C 
ATOM     13  O   UNL     1      43.501  76.097  40.111  0.00  0.00    -0.271 OA
BRANCH  12  14
ATOM     14  CA  UNL     1      41.640  76.307  38.672  0.00  0.00    +0.191 C 
ATOM     15  N   UNL     1      41.173  75.009  39.118  0.00  0.00    -0.118 NA
BRANCH  14  16
ATOM     16  C   UNL     1      40.456  77.161  38.498  0.00  0.00    +0.004 A 
ATOM     17  C   UNL     1      40.179  77.913  37.393  0.00  0.00    -0.002 A 
ATOM     18  C   UNL     1      39.007  78.670  37.385  0.00  0.00    -0.000 A 
ATOM     19  C   UNL     1      38.132  78.678  38.450  0.00  0.00    -0.000 A 
ATOM     20  C   UNL     1      38.412  77.918  39.565  0.00  0.00    -0.000 A 
ATOM     21  C   UNL     1      39.557  77.180  39.570  0.00  0.00    -0.002 A 
ENDBRANCH  14  16
ENDBRANCH  12  14
ENDBRANCH   7  11
BRANCH   4  22
ATOM     22  C   UNL     1      46.994  82.196  39.084  0.00  0.00    +0.402 C 
ATOM     23  O   UNL     1      48.207  82.567  39.106  0.00  0.00    -0.239 OA
ATOM     24  OXT UNL     1      46.134  82.745  38.160  0.00  0.00    -0.239 OA
ENDBRANCH   4  22
TORSDOF 4
