REMARK  Name = Lorlatinib
REMARK  1 active torsions:
REMARK  status: ('A' for Active; 'I' for Inactive)
REMARK    1  A    between atoms: C_17  and  C_27
REMARK                            x       y       z     vdW  Elec       q    Type
REMARK                         _______ _______ _______ _____ _____    ______ ____
ROOT
ATOM      1  C   UNL     1      47.336  84.239  43.969  0.00  0.00    +0.052 C 
ATOM      2  C   UNL     1      47.305  83.032  43.098  0.00  0.00    +0.189 C 
ATOM      3  C   UNL     1      48.628  82.526  42.657  0.00  0.00    +0.024 A 
ATOM      4  C   UNL     1      49.100  81.263  42.461  0.00  0.00    +0.053 A 
ATOM      5  C   UNL     1      50.484  81.290  42.035  0.00  0.00    +0.007 A 
ATOM      6  C   UNL     1      51.264  82.357  41.834  0.00  0.00    +0.030 A 
ATOM      7  C   UNL     1      50.730  83.589  42.046  0.00  0.00    +0.140 A 
ATOM      8  C   UNL     1      49.445  83.678  42.448  0.00  0.00    +0.029 A 
ATOM      9  F   UNL     1      51.476  84.718  41.851  0.00  0.00    -0.204 F 
ATOM     10  C   UNL     1      48.551  79.925  42.569  0.00  0.00    +0.249 C 
ATOM     11  O   UNL     1      49.434  79.203  43.347  0.00  0.00    -0.270 OA
ATOM     12  N   UNL     1      47.527  79.061  42.222  0.00  0.00    -0.269 N 
ATOM     13  C   UNL     1      46.143  78.828  42.608  0.00  0.00    +0.141 C 
ATOM     14  C   UNL     1      45.340  78.232  41.508  0.00  0.00    +0.101 A 
ATOM     15  N   UNL     1      44.881  77.012  41.337  0.00  0.00    -0.171 NA
ATOM     16  N   UNL     1      44.205  76.917  40.209  0.00  0.00    -0.239 N 
ATOM     17  C   UNL     1      44.218  78.105  39.622  0.00  0.00    +0.147 A 
ATOM     18  C   UNL     1      44.923  78.983  40.397  0.00  0.00    +0.046 A 
ATOM     19  C   UNL     1      45.323  80.412  40.246  0.00  0.00    +0.026 A 
ATOM     20  C   UNL     1      45.496  81.316  41.254  0.00  0.00    +0.042 A 
ATOM     21  C   UNL     1      46.224  82.440  40.943  0.00  0.00    +0.173 A 
ATOM     22  C   UNL     1      46.715  82.649  39.671  0.00  0.00    +0.204 A 
ATOM     23  N   UNL     1      46.536  81.778  38.655  0.00  0.00    -0.223 NA
ATOM     24  C   UNL     1      45.846  80.675  38.967  0.00  0.00    +0.101 A 
ATOM     25  N   UNL     1      47.454  83.837  39.281  0.00  0.00    -0.104 NA
ATOM     26  O   UNL     1      46.571  83.454  41.887  0.00  0.00    -0.472 OA
ATOM     27  C   UNL     1      43.567  75.727  39.712  0.00  0.00    +0.155 C 
ATOM     28  C   UNL     1      47.844  77.947  41.213  0.00  0.00    +0.116 C 
ENDROOT
BRANCH  17  29
ATOM     29  C   UNL     1      43.608  78.475  38.348  0.00  0.00    +0.119 C 
ATOM     30  N   UNL     1      43.130  78.764  37.316  0.00  0.00    -0.189 NA
ENDBRANCH  17  29
TORSDOF 1
