REMARK  Name = Lornoxicam
REMARK  2 active torsions:
REMARK  status: ('A' for Active; 'I' for Inactive)
REMARK    1  A    between atoms: C_3  and  C_15
REMARK    2  A    between atoms: N_17  and  C_18
REMARK                            x       y       z     vdW  Elec       q    Type
REMARK                         _______ _______ _______ _____ _____    ______ ____
ROOT
ATOM      1  C   UNL     1      45.940  83.634  42.419  0.00  0.00    +0.139 C 
ATOM      2  N   UNL     1      47.301  83.138  42.302  0.00  0.00    -0.181 N 
ATOM      3  C   UNL     1      47.539  81.937  41.546  0.00  0.00    +0.163 C 
ATOM      4  C   UNL     1      48.747  81.578  41.181  0.00  0.00    +0.222 C 
ATOM      5  C   UNL     1      49.992  82.313  41.491  0.00  0.00    +0.089 A 
ATOM      6  C   UNL     1      50.099  83.455  42.204  0.00  0.00    +0.136 A 
ATOM      7  S   UNL     1      48.603  83.993  43.019  0.00  0.00    +0.077 S 
ATOM      8  O   UNL     1      48.730  83.570  44.464  0.00  0.00    -0.150 OA
ATOM      9  O   UNL     1      48.450  85.466  42.899  0.00  0.00    -0.150 OA
ATOM     10  C   UNL     1      51.310  84.029  42.305  0.00  0.00    +0.039 A 
ATOM     11  C   UNL     1      52.362  83.422  41.684  0.00  0.00    +0.088 A 
ATOM     12  S   UNL     1      51.630  82.061  40.972  0.00  0.00    -0.071 S 
ATOM     13 CL   UNL     1      54.048  83.902  41.621  0.00  0.00    -0.075 Cl
ATOM     14  O   UNL     1      48.974  80.403  40.426  0.00  0.00    -0.284 OA
ENDROOT
BRANCH   3  15
ATOM     15  C   UNL     1      46.377  81.140  41.225  0.00  0.00    +0.288 C 
ATOM     16  O   UNL     1      45.435  81.055  42.072  0.00  0.00    -0.266 OA
ATOM     17  N   UNL     1      46.163  80.422  40.044  0.00  0.00    -0.155 NA
BRANCH  17  18
ATOM     18  C   UNL     1      44.932  79.680  39.861  0.00  0.00    +0.155 A 
ATOM     19  C   UNL     1      44.709  78.546  40.609  0.00  0.00    +0.036 A 
ATOM     20  C   UNL     1      43.522  77.869  40.403  0.00  0.00    +0.005 A 
ATOM     21  C   UNL     1      42.607  78.334  39.474  0.00  0.00    +0.021 A 
ATOM     22  C   UNL     1      42.875  79.484  38.743  0.00  0.00    +0.100 A 
ATOM     23  N   UNL     1      44.043  80.105  38.980  0.00  0.00    -0.227 NA
ENDBRANCH  17  18
ENDBRANCH   3  15
TORSDOF 2
