REMARK  Name = Losartan
REMARK  8 active torsions:
REMARK  status: ('A' for Active; 'I' for Inactive)
REMARK    1  A    between atoms: C_2  and  C_3
REMARK    2  A    between atoms: C_3  and  C_4
REMARK    3  A    between atoms: C_4  and  C_5
REMARK    4  A    between atoms: C_8  and  C_28
REMARK    5  A    between atoms: N_9  and  C_10
REMARK    6  A    between atoms: C_10  and  C_11
REMARK    7  A    between atoms: C_14  and  C_17
REMARK    8  A    between atoms: C_22  and  C_23
REMARK                            x       y       z     vdW  Elec       q    Type
REMARK                         _______ _______ _______ _____ _____    ______ ____
ROOT
ATOM      1  C   UNL     1      46.976  80.189  40.442  0.00  0.00    +0.000 A 
ATOM      2  C   UNL     1      47.004  81.447  39.920  0.00  0.00    -0.002 A 
ATOM      3  C   UNL     1      47.478  82.510  40.670  0.00  0.00    -0.000 A 
ATOM      4  C   UNL     1      47.946  82.394  41.962  0.00  0.00    +0.000 A 
ATOM      5  C   UNL     1      47.910  81.111  42.476  0.00  0.00    -0.000 A 
ATOM      6  C   UNL     1      47.447  80.042  41.756  0.00  0.00    -0.002 A 
ENDROOT
BRANCH   4   7
ATOM      7  C   UNL     1      48.451  83.520  42.737  0.00  0.00    +0.003 A 
ATOM      8  C   UNL     1      47.596  84.579  43.047  0.00  0.00    +0.000 A 
ATOM      9  C   UNL     1      48.045  85.655  43.790  0.00  0.00    +0.000 A 
ATOM     10  C   UNL     1      49.338  85.720  44.246  0.00  0.00    +0.000 A 
ATOM     11  C   UNL     1      50.175  84.675  43.937  0.00  0.00    +0.003 A 
ATOM     12  C   UNL     1      49.768  83.569  43.192  0.00  0.00    +0.039 A 
BRANCH  12  13
ATOM     13  C   UNL     1      50.654  82.484  42.877  0.00  0.00    +0.208 A 
ATOM     14  N   UNL     1      51.291  81.707  43.765  0.00  0.00    -0.106 NA
ATOM     15  N   UNL     1      52.034  80.810  43.138  0.00  0.00    -0.021 NA
ATOM     16  N   UNL     1      51.866  81.021  41.846  0.00  0.00    -0.021 NA
ATOM     17  N   UNL     1      51.017  82.052  41.672  0.00  0.00    -0.106 NA
ENDBRANCH  12  13
ENDBRANCH   4   7
BRANCH   1  18
ATOM     18  C   UNL     1      46.551  78.959  39.770  0.00  0.00    +0.134 C 
BRANCH  18  23
ATOM     19  C   UNL     1      44.360  77.874  40.204  0.00  0.00    +0.121 A 
ATOM     20  N   UNL     1      43.097  78.033  39.715  0.00  0.00    -0.220 NA
ATOM     21  C   UNL     1      43.083  78.978  38.771  0.00  0.00    +0.154 A 
ATOM     22  C   UNL     1      44.385  79.413  38.679  0.00  0.00    +0.100 A 
ATOM     23  N   UNL     1      45.169  78.752  39.541  0.00  0.00    -0.311 N 
ATOM     24 CL   UNL     1      41.693  79.527  37.866  0.00  0.00    -0.060 Cl
BRANCH  22  25
ATOM     25  C   UNL     1      44.807  80.466  37.737  0.00  0.00    +0.228 C 
ATOM     26  O   UNL     1      44.322  81.707  38.208  0.00  0.00    -0.213 OA
ENDBRANCH  22  25
BRANCH  19  27
ATOM     27  C   UNL     1      44.806  76.966  41.276  0.00  0.00    +0.064 C 
BRANCH  27  28
ATOM     28  C   UNL     1      43.890  76.934  42.475  0.00  0.00    +0.008 C 
BRANCH  28  30
ATOM     29  C   UNL     1      45.196  76.789  44.510  0.00  0.00    +0.000 C 
ATOM     30  C   UNL     1      44.345  75.991  43.542  0.00  0.00    +0.000 C 
ENDBRANCH  28  30
ENDBRANCH  27  28
ENDBRANCH  19  27
ENDBRANCH  18  23
ENDBRANCH   1  18
TORSDOF 8
