REMARK  Name = Loteprednol_Etabonate
REMARK  7 active torsions:
REMARK  status: ('A' for Active; 'I' for Inactive)
REMARK    1  A    between atoms: C_2  and  O_3
REMARK    2  A    between atoms: O_3  and  C_4
REMARK    3  A    between atoms: C_4  and  O_6
REMARK    4  A    between atoms: O_6  and  C_7
REMARK    5  A    between atoms: C_7  and  C_28
REMARK    6  A    between atoms: C_28  and  O_30
REMARK    7  A    between atoms: O_30  and  C_31
REMARK                            x       y       z     vdW  Elec       q    Type
REMARK                         _______ _______ _______ _____ _____    ______ ____
ROOT
ATOM      1  C   UNL     1      48.350  81.642  41.664  0.00  0.00    +0.227 C 
ATOM      2  C   UNL     1      47.822  81.532  43.054  0.00  0.00    +0.051 C 
ATOM      3  C   UNL     1      47.187  80.165  43.046  0.00  0.00    +0.004 C 
ATOM      4  C   UNL     1      46.484  80.175  41.708  0.00  0.00    +0.004 C 
ATOM      5  C   UNL     1      47.129  81.240  40.865  0.00  0.00    +0.046 C 
ATOM      6  C   UNL     1      46.186  82.380  40.576  0.00  0.00    +0.037 C 
ATOM      7  C   UNL     1      45.056  81.705  39.783  0.00  0.00    +0.153 C 
ATOM      8  C   UNL     1      44.252  80.867  40.752  0.00  0.00    +0.038 C 
ATOM      9  C   UNL     1      45.005  80.400  41.925  0.00  0.00    +0.004 C 
ATOM     10  C   UNL     1      44.505  79.278  42.748  0.00  0.00    +0.004 C 
ATOM     11  C   UNL     1      43.502  78.428  42.034  0.00  0.00    +0.022 C 
ATOM     12  C   UNL     1      43.876  78.462  40.567  0.00  0.00    -0.038 C 
ATOM     13  C   UNL     1      44.364  77.433  39.946  0.00  0.00    +0.034 C 
ATOM     14  C   UNL     1      44.727  77.460  38.533  0.00  0.00    +0.195 C 
ATOM     15  O   UNL     1      45.197  76.453  37.951  0.00  0.00    -0.287 OA
ATOM     16  C   UNL     1      44.497  78.742  37.873  0.00  0.00    +0.038 C 
ATOM     17  C   UNL     1      44.004  79.784  38.501  0.00  0.00    -0.020 C 
ATOM     18  C   UNL     1      43.651  79.751  39.891  0.00  0.00    +0.036 C 
ATOM     19  C   UNL     1      42.109  79.941  39.938  0.00  0.00    +0.009 C 
ATOM     20  O   UNL     1      44.275  82.715  39.253  0.00  0.00    -0.223 OA
ATOM     21  C   UNL     1      47.611  80.688  39.541  0.00  0.00    +0.004 C 
ENDROOT
BRANCH   1  22
ATOM     22  C   UNL     1      48.858  82.983  41.331  0.00  0.00    +0.355 C 
ATOM     23  O   UNL     1      49.144  83.292  40.158  0.00  0.00    -0.246 OA
BRANCH  22  24
ATOM     24  O   UNL     1      49.026  83.926  42.334  0.00  0.00    -0.428 OA
BRANCH  24  25
ATOM     25  C   UNL     1      48.544  85.257  42.207  0.00  0.00    +0.304 C 
ATOM     26 CL   UNL     1      47.416  85.579  43.538  0.00  0.00    -0.063 Cl
ENDBRANCH  24  25
ENDBRANCH  22  24
ENDBRANCH   1  22
BRANCH   1  27
ATOM     27  O   UNL     1      49.321  80.631  41.370  0.00  0.00    -0.414 OA
BRANCH  27  28
ATOM     28  C   UNL     1      50.669  80.822  41.543  0.00  0.00    +0.512 C 
ATOM     29  O   UNL     1      51.379  79.801  41.708  0.00  0.00    -0.203 OA
BRANCH  28  30
ATOM     30  O   UNL     1      51.302  82.045  41.548  0.00  0.00    -0.418 OA
BRANCH  30  32
ATOM     31  C   UNL     1      53.048  83.344  40.459  0.00  0.00    +0.051 C 
ATOM     32  C   UNL     1      52.703  82.201  41.379  0.00  0.00    +0.212 C 
ENDBRANCH  30  32
ENDBRANCH  28  30
ENDBRANCH  27  28
ENDBRANCH   1  27
TORSDOF 7
