REMARK  Name = Lovastatin
REMARK  7 active torsions:
REMARK  status: ('A' for Active; 'I' for Inactive)
REMARK    1  A    between atoms: C_2  and  C_3
REMARK    2  A    between atoms: C_3  and  C_5
REMARK    3  A    between atoms: C_5  and  O_7
REMARK    4  A    between atoms: O_7  and  C_8
REMARK    5  A    between atoms: C_14  and  C_19
REMARK    6  A    between atoms: C_19  and  C_20
REMARK    7  A    between atoms: C_20  and  C_21
REMARK                            x       y       z     vdW  Elec       q    Type
REMARK                         _______ _______ _______ _____ _____    ______ ____
ROOT
ATOM      1  C   UNL     1      48.305  81.365  42.359  0.00  0.00    +0.173 C 
ATOM      2  C   UNL     1      48.261  82.404  43.464  0.00  0.00    +0.048 C 
ATOM      3  C   UNL     1      48.928  83.684  42.981  0.00  0.00    +0.025 C 
ATOM      4  C   UNL     1      48.478  84.094  41.639  0.00  0.00    -0.030 C 
ATOM      5  C   UNL     1      47.940  83.276  40.812  0.00  0.00    -0.024 C 
ATOM      6  C   UNL     1      47.709  81.837  41.099  0.00  0.00    +0.062 C 
ATOM      7  C   UNL     1      46.327  81.560  40.716  0.00  0.00    +0.012 C 
ATOM      8  C   UNL     1      46.295  81.549  39.165  0.00  0.00    +0.022 C 
ATOM      9  C   UNL     1      46.720  82.888  38.734  0.00  0.00    -0.027 C 
ATOM     10  C   UNL     1      47.475  83.698  39.476  0.00  0.00    -0.009 C 
ATOM     11  C   UNL     1      44.934  81.153  38.657  0.00  0.00    +0.005 C 
ATOM     12  C   UNL     1      50.434  83.539  42.938  0.00  0.00    +0.005 C 
ENDROOT
BRANCH   1  13
ATOM     13  O   UNL     1      49.686  81.081  42.069  0.00  0.00    -0.452 OA
BRANCH  13  14
ATOM     14  C   UNL     1      50.379  80.057  42.645  0.00  0.00    +0.316 C 
ATOM     15  O   UNL     1      50.297  79.967  43.887  0.00  0.00    -0.250 OA
BRANCH  14  16
ATOM     16  C   UNL     1      51.202  79.073  41.906  0.00  0.00    +0.099 C 
ATOM     17  C   UNL     1      51.537  77.943  42.859  0.00  0.00    +0.012 C 
BRANCH  16  19
ATOM     18  C   UNL     1      49.456  77.584  40.882  0.00  0.00    +0.001 C 
ATOM     19  C   UNL     1      50.538  78.586  40.657  0.00  0.00    +0.011 C 
ENDBRANCH  16  19
ENDBRANCH  14  16
ENDBRANCH  13  14
ENDBRANCH   1  13
BRANCH   7  20
ATOM     20  C   UNL     1      45.470  80.544  41.290  0.00  0.00    +0.004 C 
BRANCH  20  21
ATOM     21  C   UNL     1      45.723  79.116  40.946  0.00  0.00    +0.044 C 
BRANCH  21  22
ATOM     22  C   UNL     1      44.417  78.315  40.912  0.00  0.00    +0.171 C 
ATOM     23  C   UNL     1      44.800  76.888  40.660  0.00  0.00    +0.077 C 
ATOM     24  C   UNL     1      43.563  76.114  40.238  0.00  0.00    +0.167 C 
ATOM     25  C   UNL     1      43.110  76.654  38.897  0.00  0.00    +0.142 C 
ATOM     26  C   UNL     1      42.853  78.099  39.043  0.00  0.00    +0.319 C 
ATOM     27  O   UNL     1      42.021  78.739  38.318  0.00  0.00    -0.250 OA
ATOM     28  O   UNL     1      43.516  78.850  39.996  0.00  0.00    -0.452 OA
ATOM     29  O   UNL     1      43.842  74.759  40.081  0.00  0.00    -0.222 OA
ENDBRANCH  21  22
ENDBRANCH  20  21
ENDBRANCH   7  20
TORSDOF 7
