REMARK  Name = Loxapine
REMARK  0 active torsions:
REMARK  status: ('A' for Active; 'I' for Inactive)
REMARK                            x       y       z     vdW  Elec       q    Type
REMARK                         _______ _______ _______ _____ _____    ______ ____
ROOT
ATOM      1  C   UNL     1      39.339  77.132  37.338  0.00  0.00    +0.090 C 
ATOM      2  N   UNL     1      40.625  77.430  37.827  0.00  0.00    -0.269 NA
ATOM      3  C   UNL     1      41.069  78.775  37.677  0.00  0.00    +0.094 C 
ATOM      4  C   UNL     1      42.598  78.687  37.527  0.00  0.00    +0.109 C 
ATOM      5  N   UNL     1      43.060  78.095  38.764  0.00  0.00    -0.290 N 
ATOM      6  C   UNL     1      42.493  76.823  39.156  0.00  0.00    +0.109 C 
ATOM      7  C   UNL     1      40.956  76.885  39.112  0.00  0.00    +0.094 C 
ATOM      8  C   UNL     1      44.035  78.803  39.514  0.00  0.00    +0.135 C 
ATOM      9  N   UNL     1      44.473  79.905  39.005  0.00  0.00    -0.228 NA
ATOM     10  C   UNL     1      45.447  80.838  39.511  0.00  0.00    +0.117 A 
ATOM     11  C   UNL     1      45.769  81.796  38.572  0.00  0.00    +0.022 A 
ATOM     12  C   UNL     1      46.685  82.797  38.837  0.00  0.00    +0.002 A 
ATOM     13  C   UNL     1      47.277  82.816  40.079  0.00  0.00    +0.003 A 
ATOM     14  C   UNL     1      46.962  81.866  41.021  0.00  0.00    +0.039 A 
ATOM     15  C   UNL     1      46.049  80.876  40.742  0.00  0.00    +0.163 A 
ATOM     16  O   UNL     1      45.825  79.982  41.786  0.00  0.00    -0.452 OA
ATOM     17  C   UNL     1      45.230  78.728  41.785  0.00  0.00    +0.148 A 
ATOM     18  C   UNL     1      44.441  78.215  40.780  0.00  0.00    +0.067 A 
ATOM     19  C   UNL     1      43.933  76.927  40.969  0.00  0.00    +0.017 A 
ATOM     20  C   UNL     1      44.206  76.206  42.107  0.00  0.00    +0.058 A 
ATOM     21  C   UNL     1      44.992  76.725  43.102  0.00  0.00    +0.015 A 
ATOM     22  C   UNL     1      45.507  78.010  42.927  0.00  0.00    +0.038 A 
ATOM     23 CL   UNL     1      43.532  74.584  42.284  0.00  0.00    -0.082 Cl
ENDROOT
TORSDOF 0
