REMARK  Name = Loxoprofen_gel
REMARK  4 active torsions:
REMARK  status: ('A' for Active; 'I' for Inactive)
REMARK    1  A    between atoms: C_2  and  C_3
REMARK    2  A    between atoms: C_2  and  C_16
REMARK    3  A    between atoms: C_6  and  C_9
REMARK    4  A    between atoms: C_9  and  C_10
REMARK                            x       y       z     vdW  Elec       q    Type
REMARK                         _______ _______ _______ _____ _____    ______ ____
ROOT
ATOM      1  C   UNL     1      45.849  80.188  40.096  0.00  0.00    -0.012 A 
ATOM      2  C   UNL     1      46.709  79.766  41.081  0.00  0.00    -0.004 A 
ATOM      3  C   UNL     1      47.726  80.575  41.545  0.00  0.00    -0.005 A 
ATOM      4  C   UNL     1      47.923  81.859  41.031  0.00  0.00    -0.022 A 
ATOM      5  C   UNL     1      47.041  82.247  40.044  0.00  0.00    -0.005 A 
ATOM      6  C   UNL     1      46.029  81.451  39.577  0.00  0.00    -0.004 A 
ENDROOT
BRANCH   1   8
ATOM      7  C   UNL     1      43.821  79.017  40.766  0.00  0.00    +0.017 C 
ATOM      8  C   UNL     1      44.760  79.285  39.618  0.00  0.00    +0.126 C 
BRANCH   8   9
ATOM      9  C   UNL     1      44.033  80.021  38.547  0.00  0.00    +0.368 C 
ATOM     10  O   UNL     1      44.355  81.205  38.264  0.00  0.00    -0.245 OA
ATOM     11  O   UNL     1      42.999  79.460  37.830  0.00  0.00    -0.245 OA
ENDBRANCH   8   9
ENDBRANCH   1   8
BRANCH   4  12
ATOM     12  C   UNL     1      49.010  82.731  41.519  0.00  0.00    +0.034 C 
BRANCH  12  13
ATOM     13  C   UNL     1      49.090  82.749  43.031  0.00  0.00    +0.062 C 
ATOM     14  C   UNL     1      48.014  83.661  43.605  0.00  0.00    +0.008 C 
ATOM     15  C   UNL     1      48.545  85.028  43.323  0.00  0.00    +0.008 C 
ATOM     16  C   UNL     1      50.010  84.888  43.706  0.00  0.00    +0.065 C 
ATOM     17  C   UNL     1      50.315  83.447  43.503  0.00  0.00    +0.151 C 
ATOM     18  O   UNL     1      51.406  82.953  43.702  0.00  0.00    -0.296 OA
ENDBRANCH  12  13
ENDBRANCH   4  12
TORSDOF 4
