REMARK  Name = Lubiprostone
REMARK  11 active torsions:
REMARK  status: ('A' for Active; 'I' for Inactive)
REMARK    1  A    between atoms: C_2  and  C_3
REMARK    2  A    between atoms: C_3  and  C_4
REMARK    3  A    between atoms: C_4  and  C_5
REMARK    4  A    between atoms: C_5  and  C_6
REMARK    5  A    between atoms: C_15  and  C_16
REMARK    6  A    between atoms: C_16  and  C_17
REMARK    7  A    between atoms: C_17  and  C_18
REMARK    8  A    between atoms: C_18  and  C_19
REMARK    9  A    between atoms: C_19  and  C_20
REMARK   10  A    between atoms: C_20  and  C_21
REMARK   11  A    between atoms: C_21  and  C_22
REMARK                            x       y       z     vdW  Elec       q    Type
REMARK                         _______ _______ _______ _____ _____    ______ ____
ROOT
ATOM      1  C   UNL     1      48.878  82.083  42.415  0.00  0.00    +0.275 C 
ATOM      2  C   UNL     1      47.608  81.586  43.028  0.00  0.00    +0.065 C 
ATOM      3  C   UNL     1      47.023  80.471  42.223  0.00  0.00    +0.008 C 
ATOM      4  C   UNL     1      47.055  80.840  40.783  0.00  0.00    +0.035 C 
ATOM      5  C   UNL     1      47.404  82.338  40.730  0.00  0.00    +0.126 C 
ATOM      6  O   UNL     1      48.715  82.445  41.067  0.00  0.00    -0.330 OA
ATOM      7  C   UNL     1      47.100  82.599  39.270  0.00  0.00    +0.094 C 
ATOM      8  C   UNL     1      45.733  82.034  39.184  0.00  0.00    +0.153 C 
ATOM      9  O   UNL     1      44.847  82.444  38.486  0.00  0.00    -0.296 OA
ATOM     10  C   UNL     1      45.690  80.887  40.116  0.00  0.00    +0.060 C 
ATOM     11  O   UNL     1      49.785  81.027  42.398  0.00  0.00    -0.189 OA
ENDROOT
BRANCH   1  12
ATOM     12  C   UNL     1      49.475  83.251  43.108  0.00  0.00    +0.312 C 
ATOM     13  F   UNL     1      49.937  82.869  44.378  0.00  0.00    -0.199 F 
ATOM     14  F   UNL     1      48.488  84.208  43.390  0.00  0.00    -0.199 F 
BRANCH  12  15
ATOM     15  C   UNL     1      50.587  83.957  42.440  0.00  0.00    +0.072 C 
BRANCH  15  16
ATOM     16  C   UNL     1      51.626  83.084  41.784  0.00  0.00    +0.006 C 
BRANCH  16  18
ATOM     17  C   UNL     1      53.961  83.388  40.930  0.00  0.00    +0.000 C 
ATOM     18  C   UNL     1      52.633  84.071  41.160  0.00  0.00    +0.000 C 
ENDBRANCH  16  18
ENDBRANCH  15  16
ENDBRANCH  12  15
ENDBRANCH   1  12
BRANCH  10  19
ATOM     19  C   UNL     1      45.576  79.630  39.287  0.00  0.00    +0.007 C 
BRANCH  19  20
ATOM     20  C   UNL     1      44.354  78.817  39.576  0.00  0.00    +0.000 C 
BRANCH  20  21
ATOM     21  C   UNL     1      43.373  78.841  38.432  0.00  0.00    +0.000 C 
BRANCH  21  22
ATOM     22  C   UNL     1      42.184  77.976  38.755  0.00  0.00    +0.001 C 
BRANCH  22  23
ATOM     23  C   UNL     1      41.152  77.919  37.678  0.00  0.00    +0.012 C 
BRANCH  23  24
ATOM     24  C   UNL     1      40.718  76.501  37.454  0.00  0.00    +0.114 C 
BRANCH  24  25
ATOM     25  C   UNL     1      39.347  76.327  37.991  0.00  0.00    +0.365 C 
ATOM     26  O   UNL     1      38.732  75.252  38.054  0.00  0.00    -0.246 OA
ATOM     27  O   UNL     1      38.687  77.464  38.469  0.00  0.00    -0.246 OA
ENDBRANCH  24  25
ENDBRANCH  23  24
ENDBRANCH  22  23
ENDBRANCH  21  22
ENDBRANCH  20  21
ENDBRANCH  19  20
ENDBRANCH  10  19
TORSDOF 11
