REMARK  Name = Lucanthone
REMARK  6 active torsions:
REMARK  status: ('A' for Active; 'I' for Inactive)
REMARK    1  A    between atoms: C_2  and  N_3
REMARK    2  A    between atoms: N_3  and  C_4
REMARK    3  A    between atoms: N_3  and  C_6
REMARK    4  A    between atoms: C_6  and  C_7
REMARK    5  A    between atoms: C_7  and  N_8
REMARK    6  A    between atoms: N_8  and  C_9
REMARK                            x       y       z     vdW  Elec       q    Type
REMARK                         _______ _______ _______ _____ _____    ______ ____
ROOT
ATOM      1  C   UNL     1      43.392  78.665  39.290  0.00  0.00    +0.069 A 
ATOM      2  C   UNL     1      44.554  79.299  39.770  0.00  0.00    +0.059 A 
ATOM      3  C   UNL     1      45.153  78.718  40.868  0.00  0.00    +0.030 A 
ATOM      4  C   UNL     1      44.657  77.593  41.466  0.00  0.00    -0.016 A 
ATOM      5  C   UNL     1      43.523  76.956  41.015  0.00  0.00    -0.002 A 
ATOM      6  C   UNL     1      42.913  77.520  39.921  0.00  0.00    +0.016 A 
ATOM      7  C   UNL     1      45.379  77.046  42.648  0.00  0.00    +0.032 C 
ATOM      8  S   UNL     1      46.563  79.501  41.433  0.00  0.00    -0.087 S 
ATOM      9  C   UNL     1      46.988  80.874  40.531  0.00  0.00    +0.033 A 
ATOM     10  C   UNL     1      48.098  81.653  40.820  0.00  0.00    +0.007 A 
ATOM     11  C   UNL     1      48.408  82.758  40.064  0.00  0.00    +0.001 A 
ATOM     12  C   UNL     1      47.572  83.048  39.020  0.00  0.00    +0.000 A 
ATOM     13  C   UNL     1      46.476  82.281  38.733  0.00  0.00    +0.004 A 
ATOM     14  C   UNL     1      46.149  81.163  39.485  0.00  0.00    +0.045 A 
ATOM     15  C   UNL     1      45.022  80.409  39.156  0.00  0.00    +0.198 A 
ATOM     16  O   UNL     1      44.407  80.886  38.141  0.00  0.00    -0.286 OA
ENDROOT
BRANCH   1  17
ATOM     17  N   UNL     1      42.656  79.122  38.172  0.00  0.00    -0.236 NA
BRANCH  17  18
ATOM     18  C   UNL     1      41.206  78.831  38.145  0.00  0.00    +0.129 C 
BRANCH  18  19
ATOM     19  C   UNL     1      40.955  77.576  37.373  0.00  0.00    +0.096 C 
BRANCH  19  20
ATOM     20  N   UNL     1      39.591  77.149  37.298  0.00  0.00    -0.271 NA
BRANCH  20  22
ATOM     21  C   UNL     1      38.033  78.320  35.931  0.00  0.00    +0.019 C 
ATOM     22  C   UNL     1      38.657  78.255  37.304  0.00  0.00    +0.072 C 
ENDBRANCH  20  22
BRANCH  20  23
ATOM     23  C   UNL     1      39.322  76.213  36.243  0.00  0.00    +0.072 C 
ATOM     24  C   UNL     1      39.997  74.885  36.440  0.00  0.00    +0.019 C 
ENDBRANCH  20  23
ENDBRANCH  19  20
ENDBRANCH  18  19
ENDBRANCH  17  18
ENDBRANCH   1  17
TORSDOF 6
