REMARK  Name = Luliconazole
REMARK  3 active torsions:
REMARK  status: ('A' for Active; 'I' for Inactive)
REMARK    1  A    between atoms: C_2  and  C_14
REMARK    2  A    between atoms: C_5  and  C_6
REMARK    3  A    between atoms: C_5  and  N_8
REMARK                            x       y       z     vdW  Elec       q    Type
REMARK                         _______ _______ _______ _____ _____    ______ ____
ROOT
ATOM      1  C   UNL     1      48.480  80.192  42.378  0.00  0.00    +0.078 C 
ATOM      2  C   UNL     1      47.937  81.512  42.791  0.00  0.00    +0.087 C 
ATOM      3  S   UNL     1      46.993  82.087  41.313  0.00  0.00    -0.101 S 
ATOM      4  C   UNL     1      46.328  80.571  40.676  0.00  0.00    +0.077 C 
ATOM      5  C   UNL     1      45.435  80.438  39.745  0.00  0.00    +0.146 C 
ATOM      6  S   UNL     1      47.123  79.296  41.596  0.00  0.00    -0.104 S 
ENDROOT
BRANCH   2   7
ATOM      7  C   UNL     1      48.973  82.547  43.022  0.00  0.00    -0.001 A 
ATOM      8  C   UNL     1      48.687  83.846  43.357  0.00  0.00    +0.055 A 
ATOM      9  C   UNL     1      49.643  84.816  43.568  0.00  0.00    +0.022 A 
ATOM     10  C   UNL     1      50.994  84.482  43.440  0.00  0.00    +0.058 A 
ATOM     11  C   UNL     1      51.292  83.210  43.110  0.00  0.00    +0.011 A 
ATOM     12  C   UNL     1      50.340  82.246  42.901  0.00  0.00    -0.002 A 
ATOM     13 CL   UNL     1      52.219  85.702  43.706  0.00  0.00    -0.082 Cl
ATOM     14 CL   UNL     1      47.015  84.353  43.539  0.00  0.00    -0.083 Cl
ENDBRANCH   2   7
BRANCH   5  15
ATOM     15  N   UNL     1      44.617  79.282  39.655  0.00  0.00    -0.277 N 
ATOM     16  C   UNL     1      43.815  78.957  38.638  0.00  0.00    +0.103 A 
ATOM     17  C   UNL     1      43.188  77.757  38.914  0.00  0.00    +0.120 A 
ATOM     18  N   UNL     1      43.636  77.373  40.117  0.00  0.00    -0.222 NA
ATOM     19  C   UNL     1      44.506  78.300  40.571  0.00  0.00    +0.183 A 
ENDBRANCH   5  15
BRANCH   5  20
ATOM     20  C   UNL     1      45.268  81.463  38.767  0.00  0.00    +0.119 C 
ATOM     21  N   UNL     1      45.122  82.338  37.957  0.00  0.00    -0.189 NA
ENDBRANCH   5  20
TORSDOF 3
