REMARK  Name = lumateperone_tosylate
REMARK  6 active torsions:
REMARK  status: ('A' for Active; 'I' for Inactive)
REMARK    1  A    between atoms: C_5  and  S_8
REMARK    2  A    between atoms: N_20  and  C_29
REMARK    3  A    between atoms: C_29  and  C_30
REMARK    4  A    between atoms: C_30  and  C_31
REMARK    5  A    between atoms: C_31  and  C_32
REMARK    6  A    between atoms: C_32  and  C_34
REMARK                            x       y       z     vdW  Elec       q    Type
REMARK                         _______ _______ _______ _____ _____    ______ ____
ROOT
ATOM      1  C   UNL     1      46.864  80.331  41.179  0.00  0.00    +0.031 C 
ATOM      2  C   UNL     1      45.846  79.324  40.760  0.00  0.00    -0.022 A 
ATOM      3  C   UNL     1      44.551  79.368  41.227  0.00  0.00    -0.003 A 
ATOM      4  C   UNL     1      43.626  78.424  40.824  0.00  0.00    +0.021 A 
ATOM      5  C   UNL     1      43.944  77.407  39.951  0.00  0.00    +0.136 A 
ATOM      6  C   UNL     1      45.241  77.362  39.483  0.00  0.00    +0.021 A 
ATOM      7  C   UNL     1      46.179  78.311  39.885  0.00  0.00    -0.003 A 
ENDROOT
BRANCH   5   8
ATOM      8  S   UNL     1      42.734  76.231  39.468  0.00  0.00    +0.141 S 
ATOM      9  O   UNL     1      41.591  76.272  40.431  0.00  0.00    -0.140 OA
ATOM     10  O   UNL     1      42.215  76.503  38.095  0.00  0.00    -0.140 OA
ATOM     11  O   UNL     1      43.428  74.681  39.432  0.00  0.00    -0.043 OA
ENDBRANCH   5   8
TORSDOF 1
REMARK  Name = lumateperone_tosylate
REMARK  6 active torsions:
REMARK  status: ('A' for Active; 'I' for Inactive)
REMARK    1  A    between atoms: C_5  and  S_8
REMARK    2  A    between atoms: N_20  and  C_29
REMARK    3  A    between atoms: C_29  and  C_30
REMARK    4  A    between atoms: C_30  and  C_31
REMARK    5  A    between atoms: C_31  and  C_32
REMARK    6  A    between atoms: C_32  and  C_34
REMARK                            x       y       z     vdW  Elec       q    Type
REMARK                         _______ _______ _______ _____ _____    ______ ____
ROOT
ATOM      1  C   UNL     1      41.498  72.987  37.726  0.00  0.00    +0.112 C 
ATOM      2  N   UNL     1      41.417  74.012  38.703  0.00  0.00    -0.303 N 
ATOM      3  C   UNL     1      41.294  73.742  40.103  0.00  0.00    +0.112 C 
ATOM      4  C   UNL     1      42.078  74.647  40.976  0.00  0.00    +0.112 C 
ATOM      5  N   UNL     1      42.008  76.024  40.585  0.00  0.00    -0.306 N 
ATOM      6  C   UNL     1      42.182  77.285  41.325  0.00  0.00    +0.080 C 
ATOM      7  C   UNL     1      43.577  77.206  41.912  0.00  0.00    +0.037 C 
ATOM      8  C   UNL     1      44.530  77.132  40.713  0.00  0.00    +0.074 C 
ATOM      9  N   UNL     1      44.515  78.371  40.004  0.00  0.00    -0.272 NA
ATOM     10  C   UNL     1      43.374  79.186  40.260  0.00  0.00    +0.078 C 
ATOM     11  C   UNL     1      42.128  78.368  40.303  0.00  0.00    +0.058 C 
ATOM     12  C   UNL     1      41.806  77.696  39.017  0.00  0.00    -0.005 A 
ATOM     13  C   UNL     1      41.743  76.359  39.255  0.00  0.00    +0.057 A 
ATOM     14  C   UNL     1      41.454  75.399  38.319  0.00  0.00    +0.061 A 
ATOM     15  C   UNL     1      41.207  75.815  37.029  0.00  0.00    +0.016 A 
ATOM     16  C   UNL     1      41.258  77.169  36.721  0.00  0.00    +0.001 A 
ATOM     17  C   UNL     1      41.558  78.102  37.725  0.00  0.00    -0.003 A 
ENDROOT
BRANCH   9  18
ATOM     18  C   UNL     1      45.759  79.066  39.959  0.00  0.00    +0.073 C 
BRANCH  18  19
ATOM     19  C   UNL     1      46.203  79.596  41.297  0.00  0.00    +0.025 C 
BRANCH  19  20
ATOM     20  C   UNL     1      47.523  80.304  41.107  0.00  0.00    +0.071 C 
BRANCH  20  21
ATOM     21  C   UNL     1      47.360  81.779  41.087  0.00  0.00    +0.173 C 
ATOM     22  O   UNL     1      46.463  82.314  40.402  0.00  0.00    -0.291 OA
BRANCH  21  23
ATOM     23  C   UNL     1      48.270  82.581  41.882  0.00  0.00    +0.035 A 
ATOM     24  C   UNL     1      49.629  82.384  41.830  0.00  0.00    +0.005 A 
ATOM     25  C   UNL     1      50.516  83.141  42.584  0.00  0.00    +0.030 A 
ATOM     26  C   UNL     1      50.032  84.134  43.425  0.00  0.00    +0.140 A 
ATOM     27  C   UNL     1      48.674  84.341  43.487  0.00  0.00    +0.030 A 
ATOM     28  C   UNL     1      47.816  83.577  42.729  0.00  0.00    +0.005 A 
ATOM     29  F   UNL     1      50.910  84.878  44.167  0.00  0.00    -0.204 F 
ENDBRANCH  21  23
ENDBRANCH  20  21
ENDBRANCH  19  20
ENDBRANCH  18  19
ENDBRANCH   9  18
TORSDOF 5
