REMARK  Name = Lumiracoxib
REMARK  4 active torsions:
REMARK  status: ('A' for Active; 'I' for Inactive)
REMARK    1  A    between atoms: C_4  and  C_17
REMARK    2  A    between atoms: C_5  and  N_8
REMARK    3  A    between atoms: N_8  and  C_9
REMARK    4  A    between atoms: C_17  and  C_18
REMARK                            x       y       z     vdW  Elec       q    Type
REMARK                         _______ _______ _______ _____ _____    ______ ____
ROOT
ATOM      1  C   UNL     1      44.847  77.408  41.687  0.00  0.00    +0.031 C 
ATOM      2  C   UNL     1      45.684  78.623  41.482  0.00  0.00    -0.022 A 
ATOM      3  C   UNL     1      45.878  79.186  40.245  0.00  0.00    -0.007 A 
ATOM      4  C   UNL     1      46.670  80.344  40.050  0.00  0.00    +0.004 A 
ATOM      5  C   UNL     1      47.248  80.894  41.143  0.00  0.00    +0.067 A 
ATOM      6  C   UNL     1      47.064  80.333  42.439  0.00  0.00    +0.016 A 
ATOM      7  C   UNL     1      46.290  79.213  42.572  0.00  0.00    -0.003 A 
ENDROOT
BRANCH   5   8
ATOM      8  N   UNL     1      48.041  82.053  41.047  0.00  0.00    -0.210 NA
BRANCH   8   9
ATOM      9  C   UNL     1      48.499  82.891  42.075  0.00  0.00    +0.108 A 
ATOM     10  C   UNL     1      47.706  83.674  42.903  0.00  0.00    +0.156 A 
ATOM     11  C   UNL     1      48.258  84.465  43.918  0.00  0.00    +0.031 A 
ATOM     12  C   UNL     1      49.617  84.486  44.115  0.00  0.00    +0.003 A 
ATOM     13  C   UNL     1      50.439  83.724  43.312  0.00  0.00    +0.013 A 
ATOM     14  C   UNL     1      49.854  82.956  42.322  0.00  0.00    +0.075 A 
ATOM     15 CL   UNL     1      50.914  81.976  41.283  0.00  0.00    -0.081 Cl
ATOM     16  F   UNL     1      46.382  83.731  42.748  0.00  0.00    -0.203 F 
ENDBRANCH   8   9
ENDBRANCH   5   8
BRANCH   4  17
ATOM     17  C   UNL     1      46.801  80.768  38.638  0.00  0.00    +0.142 C 
BRANCH  17  18
ATOM     18  C   UNL     1      45.904  81.945  38.408  0.00  0.00    +0.369 C 
ATOM     19  O   UNL     1      44.739  81.852  38.024  0.00  0.00    -0.245 OA
ATOM     20  O   UNL     1      46.423  83.242  38.656  0.00  0.00    -0.245 OA
ENDBRANCH  17  18
ENDBRANCH   4  17
TORSDOF 4
