REMARK  Name = Lurasidone_hydrochloride
REMARK  4 active torsions:
REMARK  status: ('A' for Active; 'I' for Inactive)
REMARK    1  A    between atoms: C_4  and  C_23
REMARK    2  A    between atoms: C_5  and  C_7
REMARK    3  A    between atoms: C_7  and  N_8
REMARK    4  A    between atoms: C_23  and  N_24
REMARK                            x       y       z     vdW  Elec       q    Type
REMARK                         _______ _______ _______ _____ _____    ______ ____
ROOT
ATOM      1  C   UNL     1      44.853  75.860  43.548  0.00  0.00    +0.000 C 
ATOM      2  C   UNL     1      45.961  75.663  42.568  0.00  0.00    +0.000 C 
ATOM      3  C   UNL     1      45.891  76.519  41.350  0.00  0.00    +0.002 C 
ATOM      4  C   UNL     1      44.475  76.879  40.928  0.00  0.00    +0.022 C 
ATOM      5  C   UNL     1      43.575  75.815  41.428  0.00  0.00    +0.018 C 
ATOM      6  C   UNL     1      43.478  75.838  42.964  0.00  0.00    +0.001 C 
ENDROOT
BRANCH   5   7
ATOM      7  C   UNL     1      42.228  75.675  40.831  0.00  0.00    +0.072 C 
BRANCH   7   8
ATOM      8  N   UNL     1      42.065  75.400  39.476  0.00  0.00    -0.270 NA
ATOM      9  C   UNL     1      42.355  76.356  38.491  0.00  0.00    +0.094 C 
ATOM     10  C   UNL     1      41.288  76.376  37.388  0.00  0.00    +0.110 C 
ATOM     11  N   UNL     1      39.986  76.130  37.965  0.00  0.00    -0.290 N 
ATOM     12  C   UNL     1      39.786  74.960  38.762  0.00  0.00    +0.110 C 
ATOM     13  C   UNL     1      41.133  74.369  39.141  0.00  0.00    +0.094 C 
ATOM     14  C   UNL     1      38.940  77.104  37.696  0.00  0.00    +0.140 A 
ATOM     15  N   UNL     1      38.390  77.743  38.720  0.00  0.00    -0.194 NA
ATOM     16  S   UNL     1      37.255  78.756  38.021  0.00  0.00    +0.014 S 
ATOM     17  C   UNL     1      37.499  78.346  36.379  0.00  0.00    +0.050 A 
ATOM     18  C   UNL     1      36.930  78.760  35.159  0.00  0.00    +0.008 A 
ATOM     19  C   UNL     1      37.358  78.219  33.961  0.00  0.00    +0.001 A 
ATOM     20  C   UNL     1      38.346  77.279  34.039  0.00  0.00    +0.000 A 
ATOM     21  C   UNL     1      38.895  76.879  35.210  0.00  0.00    +0.003 A 
ATOM     22  C   UNL     1      38.488  77.403  36.450  0.00  0.00    +0.040 A 
ENDBRANCH   7   8
ENDBRANCH   5   7
BRANCH   4  23
ATOM     23  C   UNL     1      44.155  78.241  41.474  0.00  0.00    +0.101 C 
BRANCH  23  24
ATOM     24  N   UNL     1      45.030  79.290  41.015  0.00  0.00    -0.230 N 
ATOM     25  C   UNL     1      46.244  79.787  41.594  0.00  0.00    +0.231 C 
ATOM     26  O   UNL     1      46.558  79.675  42.805  0.00  0.00    -0.274 OA
ATOM     27  C   UNL     1      47.077  80.453  40.560  0.00  0.00    +0.086 C 
ATOM     28  C   UNL     1      47.455  81.859  40.977  0.00  0.00    +0.009 C 
ATOM     29  C   UNL     1      48.310  82.459  39.919  0.00  0.00    +0.001 C 
ATOM     30  C   UNL     1      47.366  82.601  38.742  0.00  0.00    +0.001 C 
ATOM     31  C   UNL     1      46.027  82.096  39.229  0.00  0.00    +0.009 C 
ATOM     32  C   UNL     1      46.109  82.550  40.693  0.00  0.00    +0.001 C 
ATOM     33  C   UNL     1      46.131  80.618  39.379  0.00  0.00    +0.086 C 
ATOM     34  C   UNL     1      44.833  80.074  39.817  0.00  0.00    +0.231 C 
ATOM     35  O   UNL     1      43.730  80.254  39.251  0.00  0.00    -0.274 OA
ENDBRANCH  23  24
ENDBRANCH   4  23
TORSDOF 4
REMARK  Name = Lurasidone_hydrochloride
REMARK  4 active torsions:
REMARK  status: ('A' for Active; 'I' for Inactive)
REMARK    1  A    between atoms: C_4  and  C_23
REMARK    2  A    between atoms: C_5  and  C_7
REMARK    3  A    between atoms: C_7  and  N_8
REMARK    4  A    between atoms: C_23  and  N_24
REMARK                            x       y       z     vdW  Elec       q    Type
REMARK                         _______ _______ _______ _____ _____    ______ ____
ROOT
ATOM      1 CL   UNL     1      42.711  77.680  39.278  0.00  0.00    +0.000 Cl
ENDROOT
TORSDOF 0
