REMARK  Name = Lurbinectedin
REMARK  4 active torsions:
REMARK  status: ('A' for Active; 'I' for Inactive)
REMARK    1  A    between atoms: C_10  and  O_48
REMARK    2  A    between atoms: C_40  and  O_42
REMARK    3  A    between atoms: O_48  and  C_49
REMARK    4  A    between atoms: C_53  and  O_54
REMARK                            x       y       z     vdW  Elec       q    Type
REMARK                         _______ _______ _______ _____ _____    ______ ____
ROOT
ATOM      1  C   UNL     1      49.453  85.850  45.152  0.00  0.00    +0.034 C 
ATOM      2  C   UNL     1      48.945  84.849  44.179  0.00  0.00    +0.015 A 
ATOM      3  C   UNL     1      49.704  84.451  43.085  0.00  0.00    -0.006 A 
ATOM      4  C   UNL     1      49.250  83.522  42.170  0.00  0.00    -0.020 A 
ATOM      5  C   UNL     1      47.999  82.975  42.356  0.00  0.00    +0.032 A 
ATOM      6  C   UNL     1      47.537  81.979  41.356  0.00  0.00    +0.099 C 
ATOM      7  C   UNL     1      48.232  80.628  41.521  0.00  0.00    +0.093 C 
ATOM      8  C   UNL     1      47.319  79.607  42.115  0.00  0.00    +0.089 C 
ATOM      9  C   UNL     1      47.747  78.208  41.930  0.00  0.00    +0.024 A 
ATOM     10  C   UNL     1      47.531  77.234  42.871  0.00  0.00    +0.144 A 
ATOM     11  C   UNL     1      47.964  75.950  42.612  0.00  0.00    +0.050 A 
ATOM     12  C   UNL     1      48.605  75.594  41.454  0.00  0.00    +0.175 A 
ATOM     13  C   UNL     1      48.816  76.584  40.515  0.00  0.00    +0.173 A 
ATOM     14  C   UNL     1      48.387  77.875  40.761  0.00  0.00    +0.033 A 
ATOM     15  C   UNL     1      48.602  78.963  39.771  0.00  0.00    +0.129 C 
ATOM     16  N   UNL     1      48.890  80.195  40.359  0.00  0.00    -0.240 NA
ATOM     17  C   UNL     1      49.800  81.070  39.744  0.00  0.00    +0.228 C 
ATOM     18  C   UNL     1      49.346  82.529  39.883  0.00  0.00    +0.109 C 
ATOM     19  C   UNL     1      50.103  83.131  41.017  0.00  0.00    +0.046 C 
ATOM     20  N   UNL     1      47.922  82.493  40.057  0.00  0.00    -0.265 NA
ATOM     21  C   UNL     1      47.275  83.735  39.731  0.00  0.00    +0.090 C 
ATOM     22  O   UNL     1      49.850  80.828  38.358  0.00  0.00    -0.203 OA
ATOM     23  C   UNL     1      47.486  78.930  38.783  0.00  0.00    +0.229 C 
ATOM     24  O   UNL     1      46.462  79.865  39.011  0.00  0.00    -0.445 OA
ATOM     25  C   UNL     1      45.124  79.687  38.779  0.00  0.00    +0.337 C 
ATOM     26  O   UNL     1      44.411  80.440  38.068  0.00  0.00    -0.248 OA
ATOM     27  C   UNL     1      44.468  78.517  39.416  0.00  0.00    +0.193 C 
ATOM     28  C   UNL     1      44.868  78.387  40.874  0.00  0.00    +0.090 C 
ATOM     29  S   UNL     1      45.644  79.903  41.487  0.00  0.00    -0.133 S 
ATOM     30  C   UNL     1      42.992  78.615  39.383  0.00  0.00    +0.080 A 
ATOM     31  C   UNL     1      42.280  77.949  38.412  0.00  0.00    -0.004 A 
ATOM     32  C   UNL     1      42.917  77.118  37.370  0.00  0.00    +0.046 C 
ATOM     33  C   UNL     1      44.413  77.336  37.387  0.00  0.00    +0.094 C 
ATOM     34  N   UNL     1      44.831  77.266  38.775  0.00  0.00    -0.204 NA
ATOM     35  C   UNL     1      40.943  78.230  38.638  0.00  0.00    +0.018 A 
ATOM     36  C   UNL     1      40.870  79.056  39.736  0.00  0.00    +0.081 A 
ATOM     37  N   UNL     1      42.122  79.276  40.170  0.00  0.00    -0.248 NA
ATOM     38  C   UNL     1      39.645  79.489  40.180  0.00  0.00    +0.022 A 
ATOM     39  C   UNL     1      38.499  79.110  39.545  0.00  0.00    +0.038 A 
ATOM     40  C   UNL     1      38.538  78.295  38.457  0.00  0.00    +0.139 A 
ATOM     41  C   UNL     1      39.765  77.861  38.013  0.00  0.00    +0.038 A 
ATOM     42  O   UNL     1      49.468  76.069  39.412  0.00  0.00    -0.435 OA
ATOM     43  C   UNL     1      49.404  74.645  39.520  0.00  0.00    +0.429 C 
ATOM     44  O   UNL     1      49.148  74.446  40.897  0.00  0.00    -0.435 OA
ATOM     45  C   UNL     1      47.733  74.889  43.629  0.00  0.00    +0.038 C 
ATOM     46  C   UNL     1      47.257  83.377  43.443  0.00  0.00    +0.226 A 
ATOM     47  C   UNL     1      47.694  84.298  44.360  0.00  0.00    +0.173 A 
ATOM     48  O   UNL     1      45.982  82.818  43.630  0.00  0.00    -0.284 OA
ENDROOT
BRANCH  40  49
ATOM     49  O   UNL     1      37.352  77.919  37.822  0.00  0.00    -0.471 OA
ATOM     50  C   UNL     1      37.029  78.344  36.531  0.00  0.00    +0.252 C 
ENDBRANCH  40  49
BRANCH  47  51
ATOM     51  O   UNL     1      46.896  84.677  45.457  0.00  0.00    -0.469 OA
ATOM     52  C   UNL     1      46.321  85.991  45.407  0.00  0.00    +0.253 C 
ENDBRANCH  47  51
BRANCH  10  53
ATOM     53  O   UNL     1      46.882  77.604  44.041  0.00  0.00    -0.425 OA
BRANCH  53  54
ATOM     54  C   UNL     1      45.741  76.963  44.485  0.00  0.00    +0.322 C 
ATOM     55  O   UNL     1      45.144  76.198  43.692  0.00  0.00    -0.250 OA
ATOM     56  C   UNL     1      45.172  77.120  45.846  0.00  0.00    +0.122 C 
ENDBRANCH  53  54
ENDBRANCH  10  53
TORSDOF 4
