REMARK  Name = Lusutrombopag
REMARK  12 active torsions:
REMARK  status: ('A' for Active; 'I' for Inactive)
REMARK    1  A    between atoms: C_2  and  C_3
REMARK    2  A    between atoms: C_3  and  C_4
REMARK    3  A    between atoms: C_4  and  C_5
REMARK    4  A    between atoms: C_5  and  C_6
REMARK    5  A    between atoms: C_6  and  O_7
REMARK    6  A    between atoms: O_7  and  C_8
REMARK    7  A    between atoms: C_8  and  C_10
REMARK    8  A    between atoms: C_14  and  C_18
REMARK    9  A    between atoms: C_15  and  O_16
REMARK   10  A    between atoms: C_24  and  C_26
REMARK   11  A    between atoms: C_29  and  C_33
REMARK   12  A    between atoms: C_34  and  C_36
REMARK                            x       y       z     vdW  Elec       q    Type
REMARK                         _______ _______ _______ _____ _____    ______ ____
ROOT
ATOM      1  C   UNL     1      48.103  82.078  40.981  0.00  0.00    +0.093 A 
ATOM      2  C   UNL     1      48.148  82.882  39.870  0.00  0.00    +0.057 A 
ATOM      3  S   UNL     1      46.673  82.433  39.074  0.00  0.00    -0.049 S 
ATOM      4  C   UNL     1      46.122  81.280  40.197  0.00  0.00    +0.186 A 
ATOM      5  N   UNL     1      47.071  81.297  41.097  0.00  0.00    -0.222 NA
ATOM      6  N   UNL     1      44.912  80.482  40.176  0.00  0.00    -0.150 NA
ATOM      7  C   UNL     1      44.327  80.112  38.948  0.00  0.00    +0.271 C 
ATOM      8  O   UNL     1      44.586  80.837  37.952  0.00  0.00    -0.268 OA
ENDROOT
BRANCH   7   9
ATOM      9  C   UNL     1      43.447  78.931  38.811  0.00  0.00    +0.057 A 
ATOM     10  C   UNL     1      43.439  77.951  39.774  0.00  0.00    +0.016 A 
ATOM     11  C   UNL     1      42.601  76.842  39.648  0.00  0.00    +0.059 A 
ATOM     12  C   UNL     1      41.759  76.670  38.580  0.00  0.00    +0.021 A 
ATOM     13  C   UNL     1      41.775  77.680  37.600  0.00  0.00    +0.059 A 
ATOM     14  C   UNL     1      42.606  78.763  37.743  0.00  0.00    +0.016 A 
ATOM     15 CL   UNL     1      40.706  77.481  36.231  0.00  0.00    -0.082 Cl
ATOM     16 CL   UNL     1      42.609  75.667  40.951  0.00  0.00    -0.082 Cl
BRANCH  12  17
ATOM     17  C   UNL     1      40.917  75.504  38.408  0.00  0.00    +0.004 C 
ATOM     18  C   UNL     1      39.645  75.401  38.671  0.00  0.00    +0.058 C 
ATOM     19  C   UNL     1      38.766  76.519  39.130  0.00  0.00    +0.038 C 
BRANCH  18  20
ATOM     20  C   UNL     1      39.001  74.090  38.507  0.00  0.00    +0.384 C 
ATOM     21  O   UNL     1      37.751  73.932  38.639  0.00  0.00    -0.241 OA
ATOM     22  O   UNL     1      39.762  73.002  38.201  0.00  0.00    -0.241 OA
ENDBRANCH  18  20
ENDBRANCH  12  17
ENDBRANCH   7   9
BRANCH   1  27
ATOM     23  C   UNL     1      50.265  83.094  43.900  0.00  0.00    +0.039 A 
ATOM     24  C   UNL     1      51.176  82.083  43.855  0.00  0.00    +0.001 A 
ATOM     25  C   UNL     1      51.135  81.077  42.928  0.00  0.00    +0.000 A 
ATOM     26  C   UNL     1      50.104  81.126  42.014  0.00  0.00    +0.005 A 
ATOM     27  C   UNL     1      49.163  82.130  42.027  0.00  0.00    +0.052 A 
ATOM     28  C   UNL     1      49.228  83.118  42.957  0.00  0.00    +0.138 A 
BRANCH  23  29
ATOM     29  C   UNL     1      50.357  84.168  44.933  0.00  0.00    +0.140 C 
ATOM     30  C   UNL     1      49.581  83.665  46.125  0.00  0.00    +0.037 C 
BRANCH  29  31
ATOM     31  O   UNL     1      51.676  84.403  45.190  0.00  0.00    -0.352 OA
BRANCH  31  32
ATOM     32  C   UNL     1      52.076  85.718  45.090  0.00  0.00    +0.143 C 
BRANCH  32  33
ATOM     33  C   UNL     1      53.546  85.885  45.448  0.00  0.00    +0.032 C 
BRANCH  33  34
ATOM     34  C   UNL     1      53.701  86.452  46.843  0.00  0.00    +0.003 C 
BRANCH  34  35
ATOM     35  C   UNL     1      53.996  85.408  47.866  0.00  0.00    +0.000 C 
BRANCH  35  37
ATOM     36  C   UNL     1      55.884  84.192  48.897  0.00  0.00    +0.000 C 
ATOM     37  C   UNL     1      55.363  85.558  48.502  0.00  0.00    +0.000 C 
ENDBRANCH  35  37
ENDBRANCH  34  35
ENDBRANCH  33  34
ENDBRANCH  32  33
ENDBRANCH  31  32
ENDBRANCH  29  31
ENDBRANCH  23  29
BRANCH  28  38
ATOM     38  O   UNL     1      48.328  84.172  43.041  0.00  0.00    -0.472 OA
ATOM     39  C   UNL     1      47.081  84.007  43.726  0.00  0.00    +0.252 C 
ENDBRANCH  28  38
ENDBRANCH   1  27
TORSDOF 12
