REMARK  Name = Luvox
REMARK  12 active torsions:
REMARK  status: ('A' for Active; 'I' for Inactive)
REMARK    1  A    between atoms: O_2  and  C_3
REMARK    2  A    between atoms: C_3  and  C_4
REMARK    3  A    between atoms: C_4  and  C_5
REMARK    4  A    between atoms: C_5  and  C_6
REMARK    5  A    between atoms: C_6  and  C_7
REMARK    6  A    between atoms: C_7  and  C_13
REMARK    7  A    between atoms: N_8  and  O_9
REMARK    8  A    between atoms: O_9  and  C_10
REMARK    9  A    between atoms: C_10  and  C_11
REMARK   10  A    between atoms: C_16  and  C_19
REMARK   11  A    between atoms: C_23  and  C_28
REMARK   12  A    between atoms: C_24  and  C_25
REMARK                            x       y       z     vdW  Elec       q    Type
REMARK                         _______ _______ _______ _____ _____    ______ ____
ROOT
ATOM      1  C   UNL     1      46.577  80.318  40.753  0.00  0.00    +0.097 C 
ATOM      2  N   UNL     1      45.905  79.614  41.559  0.00  0.00    -0.087 NA
ENDROOT
BRANCH   1   3
ATOM      3  C   UNL     1      47.693  81.142  41.184  0.00  0.00    +0.017 A 
ATOM      4  C   UNL     1      48.389  81.895  40.225  0.00  0.00    +0.001 A 
ATOM      5  C   UNL     1      49.455  82.699  40.550  0.00  0.00    +0.004 A 
ATOM      6  C   UNL     1      49.897  82.804  41.849  0.00  0.00    +0.071 A 
ATOM      7  C   UNL     1      49.235  82.078  42.811  0.00  0.00    +0.004 A 
ATOM      8  C   UNL     1      48.152  81.264  42.467  0.00  0.00    +0.001 A 
BRANCH   6   9
ATOM      9  C   UNL     1      51.061  83.680  42.213  0.00  0.00    +0.419 C 
ATOM     10  F   UNL     1      50.670  84.626  43.139  0.00  0.00    -0.166 F 
ATOM     11  F   UNL     1      52.120  82.918  42.635  0.00  0.00    -0.166 F 
ATOM     12  F   UNL     1      51.383  84.380  41.053  0.00  0.00    -0.166 F 
ENDBRANCH   6   9
ENDBRANCH   1   3
BRANCH   1  13
ATOM     13  C   UNL     1      46.210  80.309  39.274  0.00  0.00    +0.049 C 
BRANCH  13  14
ATOM     14  C   UNL     1      44.808  80.844  39.135  0.00  0.00    +0.009 C 
BRANCH  14  15
ATOM     15  C   UNL     1      44.037  80.202  38.034  0.00  0.00    +0.032 C 
BRANCH  15  16
ATOM     16  C   UNL     1      43.304  78.968  38.422  0.00  0.00    +0.142 C 
BRANCH  16  18
ATOM     17  C   UNL     1      41.423  77.658  38.245  0.00  0.00    +0.174 C 
ATOM     18  O   UNL     1      42.031  78.850  37.907  0.00  0.00    -0.351 OA
ENDBRANCH  16  18
ENDBRANCH  15  16
ENDBRANCH  14  15
ENDBRANCH  13  14
ENDBRANCH   1  13
BRANCH   2  19
ATOM     19  O   UNL     1      45.084  78.587  41.444  0.00  0.00    -0.376 OA
BRANCH  19  20
ATOM     20  C   UNL     1      44.834  77.579  42.397  0.00  0.00    +0.259 C 
BRANCH  20  21
ATOM     21  C   UNL     1      45.403  76.259  41.912  0.00  0.00    +0.159 C 
ATOM     22  N   UNL     1      44.973  75.149  42.719  0.00  0.00    -0.127 NA
ENDBRANCH  20  21
ENDBRANCH  19  20
ENDBRANCH   2  19
TORSDOF 10
REMARK  Name = Luvox
REMARK  12 active torsions:
REMARK  status: ('A' for Active; 'I' for Inactive)
REMARK    1  A    between atoms: O_2  and  C_3
REMARK    2  A    between atoms: C_3  and  C_4
REMARK    3  A    between atoms: C_4  and  C_5
REMARK    4  A    between atoms: C_5  and  C_6
REMARK    5  A    between atoms: C_6  and  C_7
REMARK    6  A    between atoms: C_7  and  C_13
REMARK    7  A    between atoms: N_8  and  O_9
REMARK    8  A    between atoms: O_9  and  C_10
REMARK    9  A    between atoms: C_10  and  C_11
REMARK   10  A    between atoms: C_16  and  C_19
REMARK   11  A    between atoms: C_23  and  C_28
REMARK   12  A    between atoms: C_24  and  C_25
REMARK                            x       y       z     vdW  Elec       q    Type
REMARK                         _______ _______ _______ _____ _____    ______ ____
ROOT
ATOM      1  C   UNL     1      45.754  80.722  40.833  0.00  0.00    +0.093 C 
ATOM      2  C   UNL     1      47.033  81.000  40.916  0.00  0.00    +0.093 C 
ENDROOT
BRANCH   2   3
ATOM      3  C   UNL     1      47.697  81.085  42.200  0.00  0.00    +0.388 C 
ATOM      4  O   UNL     1      47.261  80.471  43.208  0.00  0.00    -0.241 OA
ATOM      5  O   UNL     1      48.838  81.858  42.333  0.00  0.00    -0.241 OA
ENDBRANCH   2   3
BRANCH   1   6
ATOM      6  C   UNL     1      45.024  80.968  39.582  0.00  0.00    +0.388 C 
ATOM      7  O   UNL     1      45.396  81.900  38.826  0.00  0.00    -0.241 OA
ATOM      8  O   UNL     1      43.938  80.213  39.200  0.00  0.00    -0.241 OA
ENDBRANCH   1   6
TORSDOF 2
