REMARK  Name = LY2835219
REMARK  5 active torsions:
REMARK  status: ('A' for Active; 'I' for Inactive)
REMARK    1  A    between atoms: C_2  and  N_3
REMARK    2  A    between atoms: N_6  and  C_9
REMARK    3  A    between atoms: C_9  and  C_10
REMARK    4  A    between atoms: C_21  and  C_23
REMARK    5  A    between atoms: N_32  and  C_33
REMARK                            x       y       z     vdW  Elec       q    Type
REMARK                         _______ _______ _______ _____ _____    ______ ____
ROOT
ATOM      1  C   UNL     1      42.716  76.779  39.563  0.00  0.00    +0.013 A 
ATOM      2  C   UNL     1      43.875  77.460  39.926  0.00  0.00    +0.097 A 
ATOM      3  N   UNL     1      44.276  78.575  39.297  0.00  0.00    -0.228 NA
ATOM      4  C   UNL     1      43.586  79.130  38.256  0.00  0.00    +0.155 A 
ATOM      5  C   UNL     1      42.435  78.479  37.874  0.00  0.00    +0.036 A 
ATOM      6  C   UNL     1      42.001  77.318  38.517  0.00  0.00    +0.002 A 
ATOM      7  N   UNL     1      44.049  80.305  37.618  0.00  0.00    -0.159 NA
ATOM      8  C   UNL     1      44.957  81.172  38.262  0.00  0.00    +0.242 A 
ATOM      9  N   UNL     1      45.143  82.413  37.727  0.00  0.00    -0.208 NA
ATOM     10  C   UNL     1      45.982  83.308  38.272  0.00  0.00    +0.133 A 
ATOM     11  C   UNL     1      46.690  82.987  39.407  0.00  0.00    +0.177 A 
ATOM     12  C   UNL     1      46.515  81.737  39.963  0.00  0.00    +0.113 A 
ATOM     13  N   UNL     1      45.651  80.889  39.356  0.00  0.00    -0.210 NA
ATOM     14  F   UNL     1      47.555  83.841  40.011  0.00  0.00    -0.201 F 
ENDROOT
BRANCH  12  15
ATOM     15  C   UNL     1      47.226  81.315  41.168  0.00  0.00    +0.024 A 
ATOM     16  C   UNL     1      48.230  82.049  41.755  0.00  0.00    +0.020 A 
ATOM     17  C   UNL     1      48.895  81.632  42.905  0.00  0.00    +0.081 A 
ATOM     18  C   UNL     1      48.543  80.433  43.492  0.00  0.00    +0.126 A 
ATOM     19  C   UNL     1      47.538  79.684  42.917  0.00  0.00    +0.159 A 
ATOM     20  C   UNL     1      46.880  80.116  41.762  0.00  0.00    +0.033 A 
ATOM     21  F   UNL     1      47.173  78.502  43.475  0.00  0.00    -0.203 F 
ATOM     22  N   UNL     1      49.326  80.270  44.573  0.00  0.00    -0.229 NA
ATOM     23  C   UNL     1      50.166  81.312  44.705  0.00  0.00    +0.121 A 
ATOM     24  N   UNL     1      49.881  82.134  43.668  0.00  0.00    -0.317 N 
ATOM     25  C   UNL     1      51.205  81.536  45.769  0.00  0.00    +0.072 C 
BRANCH  24  26
ATOM     26  C   UNL     1      50.528  83.396  43.382  0.00  0.00    +0.087 C 
ATOM     27  C   UNL     1      51.306  83.288  42.096  0.00  0.00    +0.025 C 
ATOM     28  C   UNL     1      49.585  84.559  43.424  0.00  0.00    +0.025 C 
ENDBRANCH  24  26
ENDBRANCH  12  15
BRANCH   1  29
ATOM     29  C   UNL     1      42.306  75.547  40.288  0.00  0.00    +0.101 C 
BRANCH  29  33
ATOM     30  N   UNL     1      40.056  72.709  38.183  0.00  0.00    -0.270 NA
ATOM     31  C   UNL     1      41.415  73.099  37.860  0.00  0.00    +0.090 C 
ATOM     32  C   UNL     1      41.717  74.510  38.273  0.00  0.00    +0.090 C 
ATOM     33  N   UNL     1      41.242  74.851  39.588  0.00  0.00    -0.266 NA
ATOM     34  C   UNL     1      40.845  73.629  40.256  0.00  0.00    +0.090 C 
ATOM     35  C   UNL     1      39.651  73.071  39.506  0.00  0.00    +0.090 C 
BRANCH  30  37
ATOM     36  C   UNL     1      38.585  70.807  37.730  0.00  0.00    +0.019 C 
ATOM     37  C   UNL     1      39.995  71.264  38.059  0.00  0.00    +0.072 C 
ENDBRANCH  30  37
ENDBRANCH  29  33
ENDBRANCH   1  29
TORSDOF 5
