REMARK  Name = Lymecycline
REMARK  10 active torsions:
REMARK  status: ('A' for Active; 'I' for Inactive)
REMARK    1  A    between atoms: C_6  and  N_40
REMARK    2  A    between atoms: C_9  and  C_26
REMARK    3  A    between atoms: N_28  and  C_29
REMARK    4  A    between atoms: C_29  and  N_30
REMARK    5  A    between atoms: N_30  and  C_31
REMARK    6  A    between atoms: C_31  and  C_32
REMARK    7  A    between atoms: C_32  and  C_33
REMARK    8  A    between atoms: C_33  and  C_34
REMARK    9  A    between atoms: C_34  and  C_35
REMARK   10  A    between atoms: C_35  and  C_36
REMARK                            x       y       z     vdW  Elec       q    Type
REMARK                         _______ _______ _______ _____ _____    ______ ____
ROOT
ATOM      1  C   UNK     1      50.092  80.095  42.414  0.00  0.00    +0.038 C 
ATOM      2  C   UNK     1      48.808  80.936  42.461  0.00  0.00    +0.149 C 
ATOM      3  C   UNK     1      47.863  80.545  41.379  0.00  0.00    +0.060 C 
ATOM      4  C   UNK     1      46.800  79.647  41.962  0.00  0.00    +0.012 C 
ATOM      5  C   UNK     1      45.704  79.296  41.021  0.00  0.00    +0.065 C 
ATOM      6  C   UNK     1      45.584  77.784  40.816  0.00  0.00    +0.124 C 
ATOM      7  C   UNK     1      44.550  77.574  39.776  0.00  0.00    +0.195 C 
ATOM      8  O   UNK     1      44.341  76.432  39.309  0.00  0.00    -0.290 OA
ATOM      9  C   UNK     1      43.735  78.683  39.255  0.00  0.00    +0.128 C 
ATOM     10  C   UNK     1      44.291  79.909  39.184  0.00  0.00    +0.215 C 
ATOM     11  C   UNK     1      45.718  79.913  39.678  0.00  0.00    +0.237 C 
ATOM     12  C   UNK     1      46.327  81.234  39.553  0.00  0.00    +0.207 C 
ATOM     13  O   UNK     1      46.062  82.053  38.664  0.00  0.00    -0.289 OA
ATOM     14  C   UNK     1      47.336  81.619  40.570  0.00  0.00    +0.057 C 
ATOM     15  C   UNK     1      47.682  82.868  40.698  0.00  0.00    +0.197 C 
ATOM     16  C   UNK     1      48.649  83.273  41.697  0.00  0.00    +0.076 A 
ATOM     17  C   UNK     1      49.199  82.343  42.515  0.00  0.00    +0.012 A 
ATOM     18  C   UNK     1      50.152  82.680  43.474  0.00  0.00    -0.002 A 
ATOM     19  C   UNK     1      50.524  84.001  43.571  0.00  0.00    +0.003 A 
ATOM     20  C   UNK     1      49.980  84.968  42.752  0.00  0.00    +0.042 A 
ATOM     21  C   UNK     1      49.042  84.599  41.816  0.00  0.00    +0.198 A 
ATOM     22  O   UNK     1      48.444  85.507  40.952  0.00  0.00    -0.286 OA
ATOM     23  O   UNK     1      47.121  83.867  39.860  0.00  0.00    -0.287 OA
ATOM     24  O   UNK     1      46.393  79.024  38.809  0.00  0.00    -0.210 OA
ATOM     25  O   UNK     1      43.666  81.025  38.726  0.00  0.00    -0.288 OA
ATOM     26  O   UNK     1      48.225  80.656  43.731  0.00  0.00    -0.221 OA
ENDROOT
BRANCH   9  27
ATOM     27  C   UNK     1      42.374  78.539  38.814  0.00  0.00    +0.272 C 
ATOM     28  O   UNK     1      41.573  77.778  39.459  0.00  0.00    -0.268 OA
ATOM     29  N   UNK     1      41.810  79.183  37.689  0.00  0.00    -0.182 NA
BRANCH  29  30
ATOM     30  C   UNK     1      41.249  78.398  36.580  0.00  0.00    +0.205 C 
BRANCH  30  31
ATOM     31  N   UNK     1      40.185  77.568  37.137  0.00  0.00    -0.196 NA
BRANCH  31  32
ATOM     32  C   UNK     1      39.297  77.123  36.036  0.00  0.00    +0.091 C 
BRANCH  32  33
ATOM     33  C   UNK     1      39.881  75.931  35.369  0.00  0.00    +0.019 C 
BRANCH  33  34
ATOM     34  C   UNK     1      39.686  74.593  35.926  0.00  0.00    +0.004 C 
BRANCH  34  35
ATOM     35  C   UNK     1      38.721  73.645  35.359  0.00  0.00    +0.031 C 
BRANCH  35  36
ATOM     36  C   UNK     1      37.607  73.103  36.168  0.00  0.00    +0.194 C 
ATOM     37  N   UNK     1      38.240  72.041  37.019  0.00  0.00    -0.121 NA
BRANCH  36  38
ATOM     38  C   UNK     1      36.602  72.372  35.372  0.00  0.00    +0.382 C 
ATOM     39  O   UNK     1      36.350  71.163  35.575  0.00  0.00    -0.244 OA
ATOM     40  O   UNK     1      35.896  72.992  34.367  0.00  0.00    -0.244 OA
ENDBRANCH  36  38
ENDBRANCH  35  36
ENDBRANCH  34  35
ENDBRANCH  33  34
ENDBRANCH  32  33
ENDBRANCH  31  32
ENDBRANCH  30  31
ENDBRANCH  29  30
ENDBRANCH   9  27
BRANCH   6  41
ATOM     41  N   UNK     1      45.423  77.052  41.994  0.00  0.00    -0.265 NA
ATOM     42  C   UNK     1      44.329  77.291  42.820  0.00  0.00    +0.090 C 
ATOM     43  C   UNK     1      46.119  75.829  42.126  0.00  0.00    +0.090 C 
ENDBRANCH   6  41
TORSDOF 10
