REMARK  Name = Lypressin
REMARK  19 active torsions:
REMARK  status: ('A' for Active; 'I' for Inactive)
REMARK    1  A    between atoms: C_3  and  C_58
REMARK    2  A    between atoms: C_6  and  C_8
REMARK    3  A    between atoms: C_17  and  C_49
REMARK    4  A    between atoms: C_21  and  C_42
REMARK    5  A    between atoms: C_25  and  C_37
REMARK    6  A    between atoms: C_29  and  C_33
REMARK    7  A    between atoms: C_33  and  C_34
REMARK    8  A    between atoms: C_37  and  C_38
REMARK    9  A    between atoms: C_38  and  C_39
REMARK   10  A    between atoms: C_42  and  C_43
REMARK   11  A    between atoms: C_49  and  C_50
REMARK   12  A    between atoms: N_60  and  C_61
REMARK   13  A    between atoms: C_61  and  C_62
REMARK   14  A    between atoms: C_61  and  C_67
REMARK   15  A    between atoms: C_62  and  C_63
REMARK   16  A    between atoms: C_63  and  C_64
REMARK   17  A    between atoms: C_64  and  C_65
REMARK   18  A    between atoms: N_69  and  C_70
REMARK   19  A    between atoms: C_70  and  C_71
REMARK                            x       y       z     vdW  Elec       q    Type
REMARK                         _______ _______ _______ _____ _____    ______ ____
ROOT
ATOM      1  C   UNL     1      41.574  75.404  40.591  0.00  0.00    +0.183 C 
ATOM      2  C   UNL     1      40.783  76.419  39.777  0.00  0.00    +0.100 C 
ATOM      3  S   UNL     1      41.725  76.969  38.328  0.00  0.00    -0.080 S 
ATOM      4  S   UNL     1      42.140  79.056  38.422  0.00  0.00    -0.080 S 
ATOM      5  C   UNL     1      43.548  79.404  39.479  0.00  0.00    +0.097 C 
ATOM      6  C   UNL     1      44.140  80.747  39.109  0.00  0.00    +0.181 C 
ATOM      7  C   UNL     1      45.347  80.597  38.259  0.00  0.00    +0.260 C 
ATOM      8  O   UNL     1      45.132  80.246  37.049  0.00  0.00    -0.272 OA
ATOM      9  N   UNL     1      46.664  80.817  38.717  0.00  0.00    -0.196 NA
ATOM     10  C   UNL     1      47.037  80.757  40.146  0.00  0.00    +0.177 C 
ATOM     11  C   UNL     1      48.066  79.693  40.234  0.00  0.00    +0.262 C 
ATOM     12  O   UNL     1      48.957  79.768  39.299  0.00  0.00    -0.271 OA
ATOM     13  N   UNL     1      48.162  78.665  41.181  0.00  0.00    -0.196 NA
ATOM     14  C   UNL     1      48.216  78.758  42.606  0.00  0.00    +0.177 C 
ATOM     15  C   UNL     1      46.933  79.162  43.247  0.00  0.00    +0.262 C 
ATOM     16  O   UNL     1      46.706  80.421  43.317  0.00  0.00    -0.271 OA
ATOM     17  N   UNL     1      45.965  78.320  43.772  0.00  0.00    -0.196 NA
ATOM     18  C   UNL     1      45.868  76.865  43.568  0.00  0.00    +0.173 C 
ATOM     19  C   UNL     1      44.592  76.675  42.829  0.00  0.00    +0.262 C 
ATOM     20  O   UNL     1      43.529  77.020  43.451  0.00  0.00    -0.271 OA
ATOM     21  N   UNL     1      44.438  76.163  41.536  0.00  0.00    -0.196 NA
ATOM     22  C   UNL     1      44.841  74.878  41.061  0.00  0.00    +0.182 C 
ATOM     23  C   UNL     1      43.819  74.271  40.139  0.00  0.00    +0.262 C 
ATOM     24  O   UNL     1      44.134  73.114  39.693  0.00  0.00    -0.271 OA
ATOM     25  N   UNL     1      42.605  74.859  39.755  0.00  0.00    -0.195 NA
ATOM     26  N   UNL     1      43.162  81.457  38.313  0.00  0.00    -0.122 NA
ENDROOT
BRANCH   1  32
ATOM     27  C   UNL     1      38.951  71.550  39.148  0.00  0.00    +0.024 C 
ATOM     28  C   UNL     1      39.621  72.303  38.043  0.00  0.00    +0.031 C 
ATOM     29  C   UNL     1      40.018  73.647  38.625  0.00  0.00    +0.154 C 
ATOM     30  N   UNL     1      39.943  73.528  40.036  0.00  0.00    -0.272 N 
ATOM     31  C   UNL     1      39.049  72.407  40.381  0.00  0.00    +0.094 C 
ATOM     32  C   UNL     1      40.601  74.332  40.996  0.00  0.00    +0.247 C 
ATOM     33  O   UNL     1      40.380  74.164  42.203  0.00  0.00    -0.273 OA
BRANCH  29  34
ATOM     34  C   UNL     1      39.154  74.673  38.017  0.00  0.00    +0.260 C 
ATOM     35  O   UNL     1      38.962  75.797  38.578  0.00  0.00    -0.272 OA
ATOM     36  N   UNL     1      38.467  74.534  36.798  0.00  0.00    -0.196 NA
BRANCH  36  37
ATOM     37  C   UNL     1      37.118  74.855  36.498  0.00  0.00    +0.173 C 
BRANCH  37  38
ATOM     38  C   UNL     1      36.407  73.726  35.849  0.00  0.00    +0.262 C 
ATOM     39  O   UNL     1      35.170  73.843  35.550  0.00  0.00    -0.271 OA
ATOM     40  N   UNL     1      37.018  72.500  35.532  0.00  0.00    -0.194 NA
BRANCH  40  41
ATOM     41  C   UNL     1      36.260  71.429  34.957  0.00  0.00    +0.203 C 
BRANCH  41  42
ATOM     42  C   UNL     1      35.805  71.661  33.571  0.00  0.00    +0.283 C 
ATOM     43  O   UNL     1      35.887  72.745  32.950  0.00  0.00    -0.270 OA
ATOM     44  N   UNL     1      35.213  70.566  32.847  0.00  0.00    -0.086 NA
ENDBRANCH  41  42
ENDBRANCH  40  41
ENDBRANCH  37  38
BRANCH  37  45
ATOM     45  C   UNL     1      36.379  75.739  37.368  0.00  0.00    +0.031 C 
BRANCH  45  46
ATOM     46  C   UNL     1      35.480  76.804  37.010  0.00  0.00    +0.004 C 
BRANCH  46  47
ATOM     47  C   UNL     1      34.444  77.397  37.849  0.00  0.00    +0.021 C 
BRANCH  47  48
ATOM     48  C   UNL     1      33.018  77.106  37.553  0.00  0.00    +0.109 C 
ATOM     49  N   UNL     1      32.844  77.273  36.099  0.00  0.00    -0.131 NA
ENDBRANCH  47  48
ENDBRANCH  46  47
ENDBRANCH  45  46
ENDBRANCH  37  45
ENDBRANCH  36  37
ENDBRANCH  29  34
ENDBRANCH   1  32
BRANCH  14  50
ATOM     50  C   UNL     1      49.337  79.603  43.159  0.00  0.00    +0.057 C 
BRANCH  50  51
ATOM     51  C   UNL     1      48.897  80.990  43.309  0.00  0.00    -0.020 A 
ATOM     52  C   UNL     1      49.441  81.897  44.167  0.00  0.00    -0.004 A 
ATOM     53  C   UNL     1      48.983  83.200  44.282  0.00  0.00    -0.000 A 
ATOM     54  C   UNL     1      47.930  83.625  43.502  0.00  0.00    -0.000 A 
ATOM     55  C   UNL     1      47.369  82.736  42.635  0.00  0.00    -0.000 A 
ATOM     56  C   UNL     1      47.833  81.447  42.532  0.00  0.00    -0.004 A 
ENDBRANCH  50  51
ENDBRANCH  14  50
BRANCH  10  57
ATOM     57  C   UNL     1      47.699  82.087  40.432  0.00  0.00    +0.057 C 
BRANCH  57  58
ATOM     58  C   UNL     1      49.167  81.934  40.720  0.00  0.00    -0.020 A 
ATOM     59  C   UNL     1      50.102  82.164  39.751  0.00  0.00    -0.001 A 
ATOM     60  C   UNL     1      51.450  82.032  40.004  0.00  0.00    +0.042 A 
ATOM     61  C   UNL     1      51.875  81.657  41.270  0.00  0.00    +0.196 A 
ATOM     62  C   UNL     1      50.929  81.428  42.239  0.00  0.00    +0.042 A 
ATOM     63  C   UNL     1      49.590  81.561  41.982  0.00  0.00    -0.001 A 
ATOM     64  O   UNL     1      53.230  81.519  41.543  0.00  0.00    -0.287 OA
ENDBRANCH  57  58
ENDBRANCH  10  57
BRANCH  22  65
ATOM     65  C   UNL     1      45.256  73.876  42.074  0.00  0.00    +0.120 C 
BRANCH  65  66
ATOM     66  C   UNL     1      45.821  74.402  43.321  0.00  0.00    +0.263 C 
ATOM     67  O   UNL     1      45.901  75.619  43.537  0.00  0.00    -0.272 OA
ATOM     68  N   UNL     1      46.288  73.493  44.306  0.00  0.00    -0.088 NA
ENDBRANCH  65  66
ENDBRANCH  22  65
BRANCH  18  69
ATOM     69  C   UNL     1      45.686  76.290  44.959  0.00  0.00    +0.041 C 
BRANCH  69  70
ATOM     70  C   UNL     1      46.811  75.425  45.418  0.00  0.00    +0.091 C 
BRANCH  70  71
ATOM     71  C   UNL     1      48.058  75.568  44.648  0.00  0.00    +0.261 C 
ATOM     72  O   UNL     1      48.544  76.718  44.480  0.00  0.00    -0.272 OA
ATOM     73  N   UNL     1      48.671  74.401  44.122  0.00  0.00    -0.088 NA
ENDBRANCH  70  71
ENDBRANCH  69  70
ENDBRANCH  18  69
TORSDOF 19
