REMARK  Name = Macitentan
REMARK  11 active torsions:
REMARK  status: ('A' for Active; 'I' for Inactive)
REMARK    1  A    between atoms: C_2  and  C_3
REMARK    2  A    between atoms: C_3  and  N_4
REMARK    3  A    between atoms: N_4  and  S_5
REMARK    4  A    between atoms: S_5  and  N_8
REMARK    5  A    between atoms: N_8  and  C_9
REMARK    6  A    between atoms: C_10  and  C_26
REMARK    7  A    between atoms: C_11  and  O_15
REMARK    8  A    between atoms: O_15  and  C_16
REMARK    9  A    between atoms: C_16  and  C_17
REMARK   10  A    between atoms: C_17  and  O_18
REMARK   11  A    between atoms: O_18  and  C_19
REMARK                            x       y       z     vdW  Elec       q    Type
REMARK                         _______ _______ _______ _____ _____    ______ ____
ROOT
ATOM      1  C   UNL     1      47.137  81.187  40.652  0.00  0.00    +0.179 A 
ATOM      2  C   UNL     1      46.061  80.412  40.411  0.00  0.00    +0.088 A 
ATOM      3  C   UNL     1      45.189  80.794  39.331  0.00  0.00    +0.229 A 
ATOM      4  N   UNL     1      45.448  81.880  38.598  0.00  0.00    -0.189 NA
ATOM      5  C   UNL     1      46.511  82.648  38.829  0.00  0.00    +0.203 A 
ATOM      6  N   UNL     1      47.308  82.302  39.816  0.00  0.00    -0.205 NA
ENDROOT
BRANCH   2   7
ATOM      7  C   UNL     1      45.639  79.185  41.041  0.00  0.00    +0.007 A 
ATOM      8  C   UNL     1      44.851  79.073  42.145  0.00  0.00    +0.001 A 
ATOM      9  C   UNL     1      44.464  77.843  42.614  0.00  0.00    +0.007 A 
ATOM     10  C   UNL     1      44.850  76.673  41.996  0.00  0.00    +0.035 A 
ATOM     11  C   UNL     1      45.647  76.753  40.878  0.00  0.00    +0.007 A 
ATOM     12  C   UNL     1      46.021  77.996  40.428  0.00  0.00    +0.001 A 
ATOM     13 BR   UNL     1      44.319  74.958  42.639  0.00  0.00    -0.049 Br
ENDBRANCH   2   7
BRANCH   1  14
ATOM     14  N   UNL     1      48.165  80.923  41.548  0.00  0.00    -0.065 NA
BRANCH  14  15
ATOM     15  S   UNL     1      49.492  81.597  42.281  0.00  0.00    +0.148 S 
ATOM     16  O   UNL     1      49.572  81.214  43.788  0.00  0.00    -0.135 OA
ATOM     17  O   UNL     1      50.763  80.866  41.703  0.00  0.00    -0.135 OA
BRANCH  15  18
ATOM     18  N   UNL     1      49.849  83.213  42.118  0.00  0.00    -0.062 NA
BRANCH  18  19
ATOM     19  C   UNL     1      48.953  84.251  42.059  0.00  0.00    +0.117 C 
BRANCH  19  21
ATOM     20  C   UNL     1      47.567  85.617  43.520  0.00  0.00    +0.002 C 
ATOM     21  C   UNL     1      48.994  85.167  43.296  0.00  0.00    +0.021 C 
ENDBRANCH  19  21
ENDBRANCH  18  19
ENDBRANCH  15  18
ENDBRANCH  14  15
ENDBRANCH   1  14
BRANCH   3  22
ATOM     22  O   UNL     1      44.129  79.974  39.148  0.00  0.00    -0.456 OA
BRANCH  22  23
ATOM     23  C   UNL     1      42.905  79.960  38.600  0.00  0.00    +0.254 C 
BRANCH  23  24
ATOM     24  C   UNL     1      42.559  78.749  37.796  0.00  0.00    +0.256 C 
BRANCH  24  25
ATOM     25  O   UNL     1      42.077  77.656  38.521  0.00  0.00    -0.443 OA
BRANCH  25  26
ATOM     26  C   UNL     1      41.152  76.752  37.991  0.00  0.00    +0.320 A 
ATOM     27  N   UNL     1      40.874  75.631  38.683  0.00  0.00    -0.192 NA
ATOM     28  C   UNL     1      39.978  74.725  38.202  0.00  0.00    +0.112 A 
ATOM     29  C   UNL     1      39.376  74.992  37.001  0.00  0.00    +0.073 A 
ATOM     30  C   UNL     1      39.679  76.156  36.305  0.00  0.00    +0.112 A 
ATOM     31  N   UNL     1      40.565  77.005  36.828  0.00  0.00    -0.192 NA
ATOM     32 BR   UNL     1      38.108  73.804  36.225  0.00  0.00    -0.046 Br
ENDBRANCH  25  26
ENDBRANCH  24  25
ENDBRANCH  23  24
ENDBRANCH  22  23
ENDBRANCH   3  22
TORSDOF 11
