REMARK  Name = Macrolides
REMARK  13 active torsions:
REMARK  status: ('A' for Active; 'I' for Inactive)
REMARK    1  A    between atoms: C_2  and  C_3
REMARK    2  A    between atoms: C_4  and  C_51
REMARK    3  A    between atoms: C_13  and  C_46
REMARK    4  A    between atoms: C_14  and  O_23
REMARK    5  A    between atoms: O_23  and  C_24
REMARK    6  A    between atoms: C_26  and  N_42
REMARK    7  A    between atoms: C_27  and  O_31
REMARK    8  A    between atoms: O_31  and  C_32
REMARK    9  A    between atoms: C_46  and  C_47
REMARK   10  A    between atoms: C_51  and  O_52
REMARK   11  A    between atoms: O_52  and  C_53
REMARK   12  A    between atoms: C_54  and  O_63
REMARK   13  A    between atoms: C_55  and  O_61
REMARK                            x       y       z     vdW  Elec       q    Type
REMARK                         _______ _______ _______ _____ _____    ______ ____
ROOT
ATOM      1  C   UNL     1      40.787  74.232  37.296  0.00  0.00    +0.175 C 
ATOM      2  C   UNL     1      39.554  73.576  37.829  0.00  0.00    +0.091 C 
ATOM      3  C   UNL     1      39.057  74.055  39.124  0.00  0.00    -0.025 C 
ATOM      4  C   UNL     1      39.324  73.583  40.339  0.00  0.00    -0.026 C 
ATOM      5  C   UNL     1      40.177  72.494  40.696  0.00  0.00    -0.002 C 
ATOM      6  C   UNL     1      41.474  72.411  40.898  0.00  0.00    +0.037 C 
ATOM      7  C   UNL     1      42.445  73.486  40.813  0.00  0.00    +0.173 C 
ATOM      8  O   UNL     1      43.462  73.342  40.098  0.00  0.00    -0.291 OA
ATOM      9  C   UNL     1      42.281  74.768  41.549  0.00  0.00    +0.062 C 
ATOM     10  C   UNL     1      43.585  75.582  41.631  0.00  0.00    +0.011 C 
ATOM     11  C   UNL     1      43.266  77.039  41.803  0.00  0.00    +0.036 C 
ATOM     12  C   UNL     1      43.950  78.029  40.983  0.00  0.00    +0.121 C 
ATOM     13  C   UNL     1      43.248  78.627  39.782  0.00  0.00    +0.058 C 
ATOM     14  C   UNL     1      41.864  78.254  39.487  0.00  0.00    +0.165 C 
ATOM     15  C   UNL     1      41.596  77.473  38.202  0.00  0.00    +0.142 C 
ATOM     16  C   UNL     1      42.163  76.110  38.259  0.00  0.00    +0.319 C 
ATOM     17  O   UNL     1      43.411  76.030  38.308  0.00  0.00    -0.250 OA
ATOM     18  O   UNL     1      41.373  75.018  38.259  0.00  0.00    -0.452 OA
ATOM     19  O   UNL     1      41.037  79.426  39.305  0.00  0.00    -0.222 OA
ATOM     20  C   UNL     1      44.157  78.760  38.594  0.00  0.00    +0.005 C 
ATOM     21  C   UNL     1      41.711  74.571  42.939  0.00  0.00    +0.008 C 
ATOM     22  C   UNL     1      38.504  74.248  41.439  0.00  0.00    +0.031 C 
ENDROOT
BRANCH   1  24
ATOM     23  C   UNL     1      41.076  71.979  36.177  0.00  0.00    +0.004 C 
ATOM     24  C   UNL     1      41.735  73.212  36.680  0.00  0.00    +0.044 C 
ENDBRANCH   1  24
BRANCH  12  25
ATOM     25  O   UNL     1      45.201  77.602  40.543  0.00  0.00    -0.331 OA
BRANCH  25  26
ATOM     26  C   UNL     1      46.274  78.394  40.938  0.00  0.00    +0.268 C 
ATOM     27  C   UNL     1      46.999  78.907  39.779  0.00  0.00    +0.225 C 
ATOM     28  C   UNL     1      47.348  80.363  39.727  0.00  0.00    +0.123 C 
ATOM     29  C   UNL     1      47.069  81.092  41.022  0.00  0.00    +0.162 C 
ATOM     30  C   UNL     1      45.663  80.609  41.402  0.00  0.00    +0.146 C 
ATOM     31  O   UNL     1      45.798  79.337  41.838  0.00  0.00    -0.329 OA
ATOM     32  C   UNL     1      45.151  81.471  42.537  0.00  0.00    +0.035 C 
ATOM     33  O   UNL     1      46.340  78.486  38.596  0.00  0.00    -0.216 OA
BRANCH  28  34
ATOM     34  N   UNL     1      46.547  80.990  38.692  0.00  0.00    -0.267 NA
ATOM     35  C   UNL     1      47.059  80.775  37.361  0.00  0.00    +0.090 C 
ATOM     36  C   UNL     1      46.292  82.387  38.979  0.00  0.00    +0.090 C 
ENDBRANCH  28  34
BRANCH  29  37
ATOM     37  O   UNL     1      48.016  80.655  41.942  0.00  0.00    -0.329 OA
BRANCH  37  38
ATOM     38  C   UNL     1      49.199  81.346  41.928  0.00  0.00    +0.238 C 
ATOM     39  C   UNL     1      50.257  80.775  42.847  0.00  0.00    +0.094 C 
ATOM     40  C   UNL     1      51.204  81.904  43.276  0.00  0.00    +0.162 C 
ATOM     41  C   UNL     1      50.365  82.774  44.213  0.00  0.00    +0.207 C 
ATOM     42  C   UNL     1      48.937  82.683  43.725  0.00  0.00    +0.151 C 
ATOM     43  O   UNL     1      48.966  82.663  42.330  0.00  0.00    -0.330 OA
ATOM     44  C   UNL     1      48.161  83.834  44.289  0.00  0.00    +0.035 C 
ATOM     45  O   UNL     1      50.502  82.404  45.533  0.00  0.00    -0.218 OA
ATOM     46  C   UNL     1      51.639  82.730  42.100  0.00  0.00    +0.036 C 
ATOM     47  O   UNL     1      52.278  81.380  43.964  0.00  0.00    -0.223 OA
ENDBRANCH  37  38
ENDBRANCH  29  37
ENDBRANCH  25  26
ENDBRANCH  12  25
BRANCH  11  48
ATOM     48  C   UNL     1      43.405  77.385  43.274  0.00  0.00    +0.075 C 
BRANCH  48  49
ATOM     49  C   UNL     1      44.089  76.422  44.119  0.00  0.00    +0.207 C 
ATOM     50  O   UNL     1      44.701  75.448  43.752  0.00  0.00    -0.288 OA
ENDBRANCH  48  49
ENDBRANCH  11  48
BRANCH   2  51
ATOM     51  C   UNL     1      38.421  73.756  36.792  0.00  0.00    +0.153 C 
BRANCH  51  52
ATOM     52  O   UNL     1      37.998  75.082  36.898  0.00  0.00    -0.328 OA
BRANCH  52  53
ATOM     53  C   UNL     1      37.251  75.480  35.804  0.00  0.00    +0.266 C 
ATOM     54  C   UNL     1      35.873  74.939  35.901  0.00  0.00    +0.201 C 
ATOM     55  C   UNL     1      35.085  75.073  34.621  0.00  0.00    +0.180 C 
ATOM     56  C   UNL     1      35.986  75.447  33.456  0.00  0.00    +0.208 C 
ATOM     57  C   UNL     1      37.244  74.585  33.651  0.00  0.00    +0.151 C 
ATOM     58  O   UNL     1      37.959  75.153  34.671  0.00  0.00    -0.328 OA
ATOM     59  C   UNL     1      38.045  74.717  32.368  0.00  0.00    +0.035 C 
ATOM     60  O   UNL     1      35.421  75.117  32.227  0.00  0.00    -0.218 OA
BRANCH  55  61
ATOM     61  O   UNL     1      34.019  75.951  34.728  0.00  0.00    -0.348 OA
ATOM     62  C   UNL     1      32.817  75.371  35.051  0.00  0.00    +0.174 C 
ENDBRANCH  55  61
BRANCH  54  63
ATOM     63  O   UNL     1      35.857  73.621  36.351  0.00  0.00    -0.346 OA
ATOM     64  C   UNL     1      35.430  73.529  37.688  0.00  0.00    +0.174 C 
ENDBRANCH  54  63
ENDBRANCH  52  53
ENDBRANCH  51  52
ENDBRANCH   2  51
TORSDOF 13
