REMARK  Name = Malathion
REMARK  11 active torsions:
REMARK  status: ('A' for Active; 'I' for Inactive)
REMARK    1  A    between atoms: C_2  and  O_3
REMARK    2  A    between atoms: O_3  and  C_4
REMARK    3  A    between atoms: C_4  and  C_6
REMARK    4  A    between atoms: C_6  and  C_7
REMARK    5  A    between atoms: C_7  and  C_8
REMARK    6  A    between atoms: C_7  and  S_13
REMARK    7  A    between atoms: C_8  and  O_10
REMARK    8  A    between atoms: O_10  and  C_11
REMARK    9  A    between atoms: S_13  and  P_14
REMARK   10  A    between atoms: P_14  and  O_16
REMARK   11  A    between atoms: P_14  and  O_18
REMARK                            x       y       z     vdW  Elec       q    Type
REMARK                         _______ _______ _______ _____ _____    ______ ____
ROOT
ATOM      1  C   UNL     1      47.709  81.670  41.014  0.00  0.00    +0.165 C 
ENDROOT
BRANCH   1   2
ATOM      2  C   UNL     1      47.423  82.299  42.303  0.00  0.00    +0.328 C 
ATOM      3  O   UNL     1      47.461  81.661  43.374  0.00  0.00    -0.249 OA
BRANCH   2   4
ATOM      4  O   UNL     1      47.097  83.637  42.372  0.00  0.00    -0.448 OA
BRANCH   4   5
ATOM      5  C   UNL     1      46.801  84.328  43.548  0.00  0.00    +0.209 C 
ATOM      6  C   UNL     1      47.264  85.774  43.360  0.00  0.00    +0.051 C 
ENDBRANCH   4   5
ENDBRANCH   2   4
ENDBRANCH   1   2
BRANCH   1   7
ATOM      7  C   UNL     1      46.876  80.428  40.771  0.00  0.00    +0.132 C 
BRANCH   7   8
ATOM      8  C   UNL     1      45.872  80.651  39.700  0.00  0.00    +0.318 C 
ATOM      9  O   UNL     1      45.952  81.688  38.989  0.00  0.00    -0.250 OA
BRANCH   8  10
ATOM     10  O   UNL     1      44.845  79.774  39.439  0.00  0.00    -0.448 OA
BRANCH  10  12
ATOM     11  C   UNL     1      42.804  78.936  38.413  0.00  0.00    +0.051 C 
ATOM     12  C   UNL     1      43.901  79.972  38.413  0.00  0.00    +0.209 C 
ENDBRANCH  10  12
ENDBRANCH   8  10
ENDBRANCH   7   8
ENDBRANCH   1   7
BRANCH   1  13
ATOM     13  S   UNL     1      49.434  81.203  40.802  0.00  0.00    -0.052 S 
BRANCH  13  14
ATOM     14  P   UNL     1      50.774  82.290  41.934  0.00  0.00    +0.232 P 
ATOM     15  S   UNL     1      52.244  81.473  42.273  0.00  0.00    +0.003 S 
BRANCH  14  16
ATOM     16  O   UNL     1      50.063  82.695  43.423  0.00  0.00    -0.307 OA
ATOM     17  C   UNL     1      50.337  84.046  43.681  0.00  0.00    +0.182 C 
ENDBRANCH  14  16
BRANCH  14  18
ATOM     18  O   UNL     1      51.154  83.742  41.150  0.00  0.00    -0.307 OA
ATOM     19  C   UNL     1      50.599  83.816  39.888  0.00  0.00    +0.182 C 
ENDBRANCH  14  18
ENDBRANCH  13  14
ENDBRANCH   1  13
TORSDOF 11
