REMARK  Name = Mannitol
REMARK  5 active torsions:
REMARK  status: ('A' for Active; 'I' for Inactive)
REMARK    1  A    between atoms: C_1  and  C_2
REMARK    2  A    between atoms: C_2  and  C_3
REMARK    3  A    between atoms: C_3  and  C_4
REMARK    4  A    between atoms: C_4  and  C_5
REMARK    5  A    between atoms: C_5  and  C_6
REMARK                            x       y       z     vdW  Elec       q    Type
REMARK                         _______ _______ _______ _____ _____    ______ ____
ROOT
ATOM      1  C   UNL     1      46.169  81.158  38.915  0.00  0.00    +0.217 C 
ATOM      2  O   UNL     1      45.156  81.319  37.945  0.00  0.00    -0.217 OA
ENDROOT
BRANCH   1   3
ATOM      3  C   UNL     1      46.261  82.430  39.746  0.00  0.00    +0.217 C 
ATOM      4  O   UNL     1      46.504  83.444  38.768  0.00  0.00    -0.217 OA
BRANCH   3   5
ATOM      5  C   UNL     1      47.421  82.393  40.705  0.00  0.00    +0.217 C 
ATOM      6  O   UNL     1      48.611  82.648  40.057  0.00  0.00    -0.217 OA
ENDBRANCH   3   5
ENDBRANCH   1   3
BRANCH   1   7
ATOM      7  C   UNL     1      45.761  80.015  39.778  0.00  0.00    +0.217 C 
ATOM      8  O   UNL     1      46.007  80.321  41.118  0.00  0.00    -0.217 OA
BRANCH   7   9
ATOM      9  C   UNL     1      44.242  79.841  39.682  0.00  0.00    +0.217 C 
ATOM     10  O   UNL     1      43.864  79.727  38.363  0.00  0.00    -0.217 OA
BRANCH   9  11
ATOM     11  C   UNL     1      43.883  78.546  40.395  0.00  0.00    +0.217 C 
ATOM     12  O   UNL     1      44.315  77.490  39.594  0.00  0.00    -0.217 OA
ENDBRANCH   9  11
ENDBRANCH   7   9
ENDBRANCH   1   7
TORSDOF 5
