REMARK  Name = Maralixibat
REMARK  13 active torsions:
REMARK  status: ('A' for Active; 'I' for Inactive)
REMARK    1  A    between atoms: C_2  and  C_3
REMARK    2  A    between atoms: C_3  and  C_4
REMARK    3  A    between atoms: C_4  and  C_5
REMARK    4  A    between atoms: C_5  and  C_45
REMARK    5  A    between atoms: C_13  and  N_16
REMARK    6  A    between atoms: C_19  and  C_22
REMARK    7  A    between atoms: C_25  and  O_28
REMARK    8  A    between atoms: O_28  and  C_29
REMARK    9  A    between atoms: C_29  and  C_30
REMARK   10  A    between atoms: C_33  and  C_36
REMARK   11  A    between atoms: C_36  and  N_37
REMARK   12  A    between atoms: C_45  and  C_46
REMARK   13  A    between atoms: C_46  and  C_47
REMARK                            x       y       z     vdW  Elec       q    Type
REMARK                         _______ _______ _______ _____ _____    ______ ____
ROOT
ATOM      1  C   UNL     1      47.313  80.938  41.153  0.00  0.00    +0.051 C 
ATOM      2  C   UNL     1      46.314  82.040  41.304  0.00  0.00    +0.158 C 
ATOM      3  S   UNL     1      45.182  82.251  39.984  0.00  0.00    +0.008 S 
ATOM      4  O   UNL     1      43.897  82.813  40.583  0.00  0.00    -0.169 OA
ATOM      5  O   UNL     1      45.591  83.168  38.911  0.00  0.00    -0.169 OA
ATOM      6  C   UNL     1      44.707  80.648  39.367  0.00  0.00    +0.102 A 
ATOM      7  C   UNL     1      44.833  79.438  40.010  0.00  0.00    +0.002 A 
ATOM      8  C   UNL     1      44.422  78.280  39.408  0.00  0.00    +0.012 A 
ATOM      9  C   UNL     1      43.862  78.278  38.126  0.00  0.00    +0.048 A 
ATOM     10  C   UNL     1      43.753  79.511  37.516  0.00  0.00    +0.016 A 
ATOM     11  C   UNL     1      44.161  80.697  38.103  0.00  0.00    +0.019 A 
ATOM     12  C   UNL     1      45.402  79.272  41.363  0.00  0.00    +0.076 C 
ATOM     13  C   UNL     1      46.863  79.547  41.279  0.00  0.00    +0.162 C 
ATOM     14  O   UNL     1      47.355  78.820  40.166  0.00  0.00    -0.222 OA
ENDROOT
BRANCH  12  15
ATOM     15  C   UNL     1      45.030  77.980  41.939  0.00  0.00    -0.016 A 
ATOM     16  C   UNL     1      45.191  76.849  41.171  0.00  0.00    -0.001 A 
ATOM     17  C   UNL     1      44.858  75.584  41.642  0.00  0.00    +0.037 A 
ATOM     18  C   UNL     1      44.347  75.381  42.901  0.00  0.00    +0.139 A 
ATOM     19  C   UNL     1      44.184  76.545  43.685  0.00  0.00    +0.037 A 
ATOM     20  C   UNL     1      44.522  77.781  43.194  0.00  0.00    -0.001 A 
BRANCH  18  21
ATOM     21  O   UNL     1      43.992  74.191  43.450  0.00  0.00    -0.471 OA
BRANCH  21  22
ATOM     22  C   UNL     1      42.865  73.483  43.660  0.00  0.00    +0.232 C 
BRANCH  22  23
ATOM     23  C   UNL     1      42.274  72.735  42.527  0.00  0.00    +0.021 A 
ATOM     24  C   UNL     1      40.894  72.794  42.329  0.00  0.00    -0.001 A 
ATOM     25  C   UNL     1      40.261  72.107  41.316  0.00  0.00    -0.007 A 
ATOM     26  C   UNL     1      40.980  71.322  40.443  0.00  0.00    -0.043 A 
ATOM     27  C   UNL     1      42.345  71.248  40.618  0.00  0.00    -0.007 A 
ATOM     28  C   UNL     1      42.973  71.951  41.652  0.00  0.00    -0.001 A 
BRANCH  26  29
ATOM     29  C   UNL     1      40.382  70.553  39.332  0.00  0.00    -0.045 C 
BRANCH  29  30
ATOM     30  N   UNL     1      39.333  69.644  39.761  0.00  0.00    +0.395 N 
ATOM     31  C   UNL     1      38.209  70.476  40.185  0.00  0.00    -0.055 C 
ATOM     32  C   UNL     1      37.185  69.633  40.882  0.00  0.00    +0.050 C 
ATOM     33  N   UNL     1      37.420  68.240  40.565  0.00  0.00    -0.279 NA
ATOM     34  C   UNL     1      38.657  67.840  41.209  0.00  0.00    +0.050 C 
ATOM     35  C   UNL     1      39.760  68.790  40.840  0.00  0.00    -0.055 C 
ATOM     36  C   UNL     1      37.617  68.085  39.135  0.00  0.00    +0.050 C 
ATOM     37  C   UNL     1      38.851  68.833  38.664  0.00  0.00    -0.055 C 
ENDBRANCH  29  30
ENDBRANCH  26  29
ENDBRANCH  22  23
ENDBRANCH  21  22
ENDBRANCH  18  21
ENDBRANCH  12  15
BRANCH   9  38
ATOM     38  N   UNL     1      43.434  77.093  37.495  0.00  0.00    -0.304 N 
ATOM     39  C   UNL     1      42.779  77.166  36.217  0.00  0.00    +0.112 C 
ATOM     40  C   UNL     1      43.663  75.829  38.144  0.00  0.00    +0.112 C 
ENDBRANCH   9  38
BRANCH   1  41
ATOM     41  C   UNL     1      48.042  81.179  39.824  0.00  0.00    +0.004 C 
BRANCH  41  42
ATOM     42  C   UNL     1      49.517  81.062  39.920  0.00  0.00    +0.000 C 
BRANCH  42  44
ATOM     43  C   UNL     1      50.568  83.320  40.302  0.00  0.00    +0.000 C 
ATOM     44  C   UNL     1      50.024  82.060  40.937  0.00  0.00    +0.000 C 
ENDBRANCH  42  44
ENDBRANCH  41  42
ENDBRANCH   1  41
BRANCH   1  45
ATOM     45  C   UNL     1      48.389  81.227  42.217  0.00  0.00    +0.004 C 
BRANCH  45  46
ATOM     46  C   UNL     1      47.840  81.917  43.423  0.00  0.00    +0.000 C 
BRANCH  46  47
ATOM     47  C   UNL     1      48.442  83.321  43.579  0.00  0.00    +0.000 C 
ATOM     48  C   UNL     1      47.265  84.220  43.979  0.00  0.00    +0.000 C 
ENDBRANCH  46  47
ENDBRANCH  45  46
ENDBRANCH   1  45
TORSDOF 13
