REMARK  Name = Maraviroc
REMARK  8 active torsions:
REMARK  status: ('A' for Active; 'I' for Inactive)
REMARK    1  A    between atoms: C_5  and  C_35
REMARK    2  A    between atoms: N_6  and  C_7
REMARK    3  A    between atoms: N_14  and  C_15
REMARK    4  A    between atoms: C_15  and  C_16
REMARK    5  A    between atoms: C_16  and  C_17
REMARK    6  A    between atoms: C_17  and  C_18
REMARK    7  A    between atoms: C_17  and  N_24
REMARK    8  A    between atoms: C_25  and  C_27
REMARK                            x       y       z     vdW  Elec       q    Type
REMARK                         _______ _______ _______ _____ _____    ______ ____
ROOT
ATOM      1  C   UNL     1      45.359  78.186  39.091  0.00  0.00    +0.043 C 
ENDROOT
BRANCH   1   2
ATOM      2  C   UNL     1      45.001  79.413  39.828  0.00  0.00    +0.074 C 
BRANCH   2  10
ATOM      3  C   UNL     1      48.021  81.930  41.380  0.00  0.00    +0.090 C 
ATOM      4  C   UNL     1      48.252  80.933  40.234  0.00  0.00    +0.039 C 
ATOM      5  C   UNL     1      46.941  80.793  39.484  0.00  0.00    +0.059 C 
ATOM      6  C   UNL     1      46.303  82.159  39.249  0.00  0.00    +0.017 C 
ATOM      7  C   UNL     1      45.495  82.473  40.470  0.00  0.00    +0.017 C 
ATOM      8  C   UNL     1      45.699  81.212  41.305  0.00  0.00    +0.059 C 
ATOM      9  C   UNL     1      46.929  81.370  42.223  0.00  0.00    +0.039 C 
ATOM     10  N   UNL     1      46.016  80.169  40.408  0.00  0.00    -0.275 NA
BRANCH   3  16
ATOM     11  C   UNL     1      50.350  79.933  41.889  0.00  0.00    +0.074 C 
ATOM     12  C   UNL     1      50.282  81.352  42.230  0.00  0.00    +0.143 A 
ATOM     13  N   UNL     1      51.247  82.094  42.849  0.00  0.00    -0.134 NA
ATOM     14  N   UNL     1      50.853  83.339  42.998  0.00  0.00    -0.134 NA
ATOM     15  C   UNL     1      49.617  83.420  42.473  0.00  0.00    +0.142 A 
ATOM     16  N   UNL     1      49.268  82.189  41.999  0.00  0.00    -0.304 N 
BRANCH  15  17
ATOM     17  C   UNL     1      48.871  84.700  42.475  0.00  0.00    +0.059 C 
ATOM     18  C   UNL     1      47.936  84.696  43.693  0.00  0.00    +0.008 C 
ATOM     19  C   UNL     1      49.863  85.826  42.683  0.00  0.00    +0.008 C 
ENDBRANCH  15  17
ENDBRANCH   3  16
ENDBRANCH   2  10
ENDBRANCH   1   2
BRANCH   1  20
ATOM     20  C   UNL     1      44.295  77.135  39.401  0.00  0.00    +0.119 C 
BRANCH  20  21
ATOM     21  C   UNL     1      44.350  76.697  40.800  0.00  0.00    -0.003 A 
ATOM     22  C   UNL     1      45.156  75.678  41.261  0.00  0.00    -0.003 A 
ATOM     23  C   UNL     1      45.154  75.323  42.592  0.00  0.00    -0.000 A 
ATOM     24  C   UNL     1      44.359  75.958  43.524  0.00  0.00    -0.000 A 
ATOM     25  C   UNL     1      43.547  76.978  43.078  0.00  0.00    -0.000 A 
ATOM     26  C   UNL     1      43.556  77.327  41.739  0.00  0.00    -0.003 A 
ENDBRANCH  20  21
BRANCH  20  27
ATOM     27  N   UNL     1      42.982  77.601  39.004  0.00  0.00    -0.203 NA
ATOM     28  C   UNL     1      41.783  76.867  39.285  0.00  0.00    +0.241 C 
ATOM     29  O   UNL     1      41.610  76.460  40.439  0.00  0.00    -0.273 OA
BRANCH  28  30
ATOM     30  C   UNL     1      40.770  76.594  38.235  0.00  0.00    +0.079 C 
ATOM     31  C   UNL     1      39.534  75.940  38.812  0.00  0.00    +0.015 C 
ATOM     32  C   UNL     1      38.599  75.621  37.676  0.00  0.00    +0.067 C 
ATOM     33  C   UNL     1      39.008  76.203  36.359  0.00  0.00    +0.264 C 
ATOM     34  C   UNL     1      40.410  75.843  35.943  0.00  0.00    +0.067 C 
ATOM     35  C   UNL     1      41.286  75.694  37.159  0.00  0.00    +0.015 C 
ATOM     36  F   UNL     1      38.764  77.567  36.292  0.00  0.00    -0.204 F 
ATOM     37  F   UNL     1      38.146  75.639  35.408  0.00  0.00    -0.204 F 
ENDBRANCH  28  30
ENDBRANCH  20  27
ENDBRANCH   1  20
TORSDOF 8
