REMARK  Name = Marinol
REMARK  4 active torsions:
REMARK  status: ('A' for Active; 'I' for Inactive)
REMARK    1  A    between atoms: C_2  and  C_3
REMARK    2  A    between atoms: C_3  and  C_4
REMARK    3  A    between atoms: C_4  and  C_5
REMARK    4  A    between atoms: C_5  and  C_6
REMARK                            x       y       z     vdW  Elec       q    Type
REMARK                         _______ _______ _______ _____ _____    ______ ____
ROOT
ATOM      1  C   UNL     1      47.601  81.757  40.350  0.00  0.00    -0.016 A 
ATOM      2  C   UNL     1      46.746  82.037  39.313  0.00  0.00    +0.038 A 
ATOM      3  C   UNL     1      45.556  81.304  39.185  0.00  0.00    +0.195 A 
ATOM      4  C   UNL     1      45.237  80.313  40.082  0.00  0.00    +0.054 A 
ATOM      5  C   UNL     1      44.023  79.477  40.067  0.00  0.00    +0.053 C 
ATOM      6  C   UNL     1      43.119  79.645  38.948  0.00  0.00    -0.030 C 
ATOM      7  C   UNL     1      42.690  78.665  38.162  0.00  0.00    -0.048 C 
ATOM      8  C   UNL     1      43.109  77.245  38.361  0.00  0.00    +0.022 C 
ATOM      9  C   UNL     1      43.403  77.079  39.857  0.00  0.00    +0.008 C 
ATOM     10  C   UNL     1      44.521  78.036  40.149  0.00  0.00    +0.045 C 
ATOM     11  C   UNL     1      45.189  77.778  41.483  0.00  0.00    +0.134 C 
ATOM     12  O   UNL     1      45.727  79.012  42.008  0.00  0.00    -0.483 OA
ATOM     13  C   UNL     1      46.114  80.027  41.144  0.00  0.00    +0.137 A 
ATOM     14  C   UNL     1      47.273  80.761  41.245  0.00  0.00    +0.033 A 
ATOM     15  C   UNL     1      46.391  76.891  41.234  0.00  0.00    +0.044 C 
ATOM     16  C   UNL     1      44.312  77.104  42.483  0.00  0.00    +0.044 C 
ATOM     17  C   UNL     1      41.755  78.928  37.024  0.00  0.00    +0.026 C 
ATOM     18  O   UNL     1      44.703  81.583  38.148  0.00  0.00    -0.287 OA
ENDROOT
BRANCH   1  19
ATOM     19  C   UNL     1      48.863  82.502  40.526  0.00  0.00    +0.027 C 
BRANCH  19  20
ATOM     20  C   UNL     1      49.013  83.052  41.926  0.00  0.00    +0.005 C 
BRANCH  20  21
ATOM     21  C   UNL     1      50.484  83.448  42.099  0.00  0.00    +0.000 C 
BRANCH  21  23
ATOM     22  C   UNL     1      50.052  84.567  44.266  0.00  0.00    +0.000 C 
ATOM     23  C   UNL     1      50.456  84.789  42.832  0.00  0.00    +0.000 C 
ENDBRANCH  21  23
ENDBRANCH  20  21
ENDBRANCH  19  20
ENDBRANCH   1  19
TORSDOF 4
