REMARK  Name = Maribavir
REMARK  3 active torsions:
REMARK  status: ('A' for Active; 'I' for Inactive)
REMARK    1  A    between atoms: C_2  and  N_4
REMARK    2  A    between atoms: N_13  and  C1*_14
REMARK    3  A    between atoms: C4*_17  and  C5*_19
REMARK                            x       y       z     vdW  Elec       q    Type
REMARK                         _______ _______ _______ _____ _____    ______ ____
ROOT
ATOM      1  N   UNL     1      42.959  77.966  38.983  0.00  0.00    -0.207 NA
ATOM      2  C   UNL     1      44.038  78.783  39.401  0.00  0.00    +0.219 A 
ATOM      3  N   UNL     1      44.261  80.009  38.856  0.00  0.00    -0.212 NA
ATOM      4  C   UNL     1      45.343  80.566  39.424  0.00  0.00    +0.101 A 
ATOM      5  C   UNL     1      45.990  81.780  39.239  0.00  0.00    +0.033 A 
ATOM      6  C   UNL     1      47.114  82.097  39.983  0.00  0.00    +0.070 A 
ATOM      7  C   UNL     1      47.556  81.169  40.904  0.00  0.00    +0.070 A 
ATOM      8  C   UNL     1      46.922  79.953  41.102  0.00  0.00    +0.031 A 
ATOM      9  C   UNL     1      45.809  79.657  40.354  0.00  0.00    +0.083 A 
ATOM     10  N   UNL     1      44.995  78.575  40.321  0.00  0.00    -0.274 N 
ATOM     11 CL   UNL     1      48.971  81.488  41.890  0.00  0.00    -0.081 Cl
ATOM     12 CL   UNL     1      47.956  83.618  39.775  0.00  0.00    -0.081 Cl
ENDROOT
BRANCH  10  13
ATOM     13  C1* UNL     1      45.101  77.390  41.114  0.00  0.00    +0.241 C 
ATOM     14  C2* UNL     1      44.778  76.119  40.341  0.00  0.00    +0.234 C 
ATOM     15  C3* UNL     1      44.440  75.208  41.536  0.00  0.00    +0.216 C 
ATOM     16  C4* UNL     1      43.618  76.211  42.330  0.00  0.00    +0.183 C 
ATOM     17  O4* UNL     1      44.341  77.367  42.256  0.00  0.00    -0.331 OA
ATOM     18  O3* UNL     1      45.651  74.914  42.160  0.00  0.00    -0.218 OA
ATOM     19  O2* UNL     1      43.567  76.251  39.658  0.00  0.00    -0.216 OA
BRANCH  16  20
ATOM     20  C5* UNL     1      43.285  75.752  43.704  0.00  0.00    +0.214 C 
ATOM     21  O5* UNL     1      44.396  76.009  44.528  0.00  0.00    -0.218 OA
ENDBRANCH  16  20
ENDBRANCH  10  13
BRANCH   1  23
ATOM     22  C   UNL     1      41.278  77.437  37.317  0.00  0.00    +0.023 C 
ATOM     23  C   UNL     1      41.844  78.488  38.253  0.00  0.00    +0.096 C 
ATOM     24  C   UNL     1      40.714  78.963  39.136  0.00  0.00    +0.023 C 
ENDBRANCH   1  23
TORSDOF 3
