REMARK  Name = Masoprocol
REMARK  5 active torsions:
REMARK  status: ('A' for Active; 'I' for Inactive)
REMARK    1  A    between atoms: C_2  and  C_3
REMARK    2  A    between atoms: C_2  and  C_12
REMARK    3  A    between atoms: C_3  and  C_4
REMARK    4  A    between atoms: C_12  and  C_14
REMARK    5  A    between atoms: C_14  and  C_15
REMARK                            x       y       z     vdW  Elec       q    Type
REMARK                         _______ _______ _______ _____ _____    ______ ____
ROOT
ATOM      1  C   UNL     1      46.512  83.043  39.661  0.00  0.00    +0.000 C 
ATOM      2  C   UNL     1      46.819  82.117  40.836  0.00  0.00    +0.005 C 
ENDROOT
BRANCH   2   3
ATOM      3  C   UNL     1      48.019  82.609  41.570  0.00  0.00    +0.005 C 
ATOM      4  C   UNL     1      47.772  83.822  42.410  0.00  0.00    +0.000 C 
BRANCH   3   5
ATOM      5  C   UNL     1      48.634  81.546  42.443  0.00  0.00    +0.026 C 
BRANCH   5   6
ATOM      6  C   UNL     1      50.006  81.969  42.874  0.00  0.00    -0.019 A 
ATOM      7  C   UNL     1      50.967  82.281  41.924  0.00  0.00    +0.041 A 
ATOM      8  C   UNL     1      52.247  82.671  42.256  0.00  0.00    +0.234 A 
ATOM      9  C   UNL     1      52.595  82.759  43.591  0.00  0.00    +0.234 A 
ATOM     10  C   UNL     1      51.651  82.453  44.551  0.00  0.00    +0.045 A 
ATOM     11  C   UNL     1      50.358  82.058  44.205  0.00  0.00    -0.001 A 
ATOM     12  O   UNL     1      53.885  83.153  43.919  0.00  0.00    -0.283 OA
ATOM     13  O   UNL     1      53.166  82.970  41.249  0.00  0.00    -0.283 OA
ENDBRANCH   5   6
ENDBRANCH   3   5
ENDBRANCH   2   3
BRANCH   2  14
ATOM     14  C   UNL     1      47.093  80.753  40.243  0.00  0.00    +0.026 C 
BRANCH  14  15
ATOM     15  C   UNL     1      45.862  80.014  39.862  0.00  0.00    -0.019 A 
ATOM     16  C   UNL     1      45.370  78.996  40.663  0.00  0.00    +0.041 A 
ATOM     17  C   UNL     1      44.233  78.286  40.331  0.00  0.00    +0.234 A 
ATOM     18  C   UNL     1      43.542  78.573  39.173  0.00  0.00    +0.234 A 
ATOM     19  C   UNL     1      44.019  79.580  38.371  0.00  0.00    +0.045 A 
ATOM     20  C   UNL     1      45.163  80.293  38.708  0.00  0.00    -0.001 A 
ATOM     21  O   UNL     1      42.392  77.853  38.839  0.00  0.00    -0.283 OA
ATOM     22  O   UNL     1      43.745  77.257  41.150  0.00  0.00    -0.283 OA
ENDBRANCH  14  15
ENDBRANCH   2  14
TORSDOF 5
