REMARK  Name = Mavacamten
REMARK  4 active torsions:
REMARK  status: ('A' for Active; 'I' for Inactive)
REMARK    1  A    between atoms: C_2  and  N_4
REMARK    2  A    between atoms: C_8  and  N_12
REMARK    3  A    between atoms: N_12  and  C_13
REMARK    4  A    between atoms: C_13  and  C_15
REMARK                            x       y       z     vdW  Elec       q    Type
REMARK                         _______ _______ _______ _____ _____    ______ ____
ROOT
ATOM      1  N   UNL     1      45.744  80.405  39.981  0.00  0.00    -0.249 N 
ATOM      2  C   UNL     1      45.757  81.557  39.274  0.00  0.00    +0.267 A 
ATOM      3  O   UNL     1      45.147  81.612  38.178  0.00  0.00    -0.267 OA
ATOM      4  C   UNL     1      46.432  82.662  39.746  0.00  0.00    +0.097 A 
ATOM      5  C   UNL     1      47.125  82.645  40.962  0.00  0.00    +0.157 A 
ATOM      6  N   UNL     1      47.078  81.477  41.620  0.00  0.00    -0.176 NA
ATOM      7  C   UNL     1      46.404  80.393  41.138  0.00  0.00    +0.354 A 
ATOM      8  O   UNL     1      46.389  79.307  41.799  0.00  0.00    -0.244 OA
ENDROOT
BRANCH   1  10
ATOM      9  C   UNL     1      45.746  78.484  38.421  0.00  0.00    +0.025 C 
ATOM     10  C   UNL     1      45.021  79.292  39.432  0.00  0.00    +0.093 C 
ATOM     11  C   UNL     1      43.699  79.722  38.838  0.00  0.00    +0.025 C 
ENDBRANCH   1  10
BRANCH   5  12
ATOM     12  N   UNL     1      47.824  83.755  41.446  0.00  0.00    -0.217 NA
BRANCH  12  13
ATOM     13  C   UNL     1      48.431  83.822  42.757  0.00  0.00    +0.116 C 
ATOM     14  C   UNL     1      48.244  85.257  43.235  0.00  0.00    +0.028 C 
BRANCH  13  15
ATOM     15  C   UNL     1      49.872  83.540  42.727  0.00  0.00    -0.003 A 
ATOM     16  C   UNL     1      50.623  83.593  41.575  0.00  0.00    -0.003 A 
ATOM     17  C   UNL     1      51.995  83.313  41.585  0.00  0.00    -0.000 A 
ATOM     18  C   UNL     1      52.594  82.978  42.785  0.00  0.00    -0.000 A 
ATOM     19  C   UNL     1      51.877  82.915  43.956  0.00  0.00    -0.000 A 
ATOM     20  C   UNL     1      50.529  83.196  43.914  0.00  0.00    -0.003 A 
ENDBRANCH  13  15
ENDBRANCH  12  13
ENDBRANCH   5  12
TORSDOF 4
