REMARK  Name = Maxacalcitol
REMARK  6 active torsions:
REMARK  status: ('A' for Active; 'I' for Inactive)
REMARK    1  A    between atoms: C_2  and  C_3
REMARK    2  A    between atoms: C_2  and  O_24
REMARK    3  A    between atoms: C_12  and  C_13
REMARK    4  A    between atoms: O_24  and  C_25
REMARK    5  A    between atoms: C_25  and  C_26
REMARK    6  A    between atoms: C_26  and  C_27
REMARK                            x       y       z     vdW  Elec       q    Type
REMARK                         _______ _______ _______ _____ _____    ______ ____
ROOT
ATOM      1  C   UNL     1      44.308  78.453  39.519  0.00  0.00    +0.028 C 
ATOM      2  C   UNL     1      44.889  77.630  40.658  0.00  0.00    +0.003 C 
ATOM      3  C   UNL     1      46.172  78.395  40.888  0.00  0.00    +0.004 C 
ATOM      4  C   UNL     1      45.713  79.841  40.810  0.00  0.00    +0.018 C 
ATOM      5  C   UNL     1      44.444  79.871  40.020  0.00  0.00    +0.006 C 
ATOM      6  C   UNL     1      44.345  80.788  38.869  0.00  0.00    +0.001 C 
ATOM      7  C   UNL     1      45.445  81.759  38.634  0.00  0.00    +0.004 C 
ATOM      8  C   UNL     1      46.807  81.180  38.970  0.00  0.00    +0.022 C 
ATOM      9  C   UNL     1      46.793  80.730  40.380  0.00  0.00    -0.045 C 
ATOM     10  C   UNL     1      47.727  81.125  41.200  0.00  0.00    -0.009 C 
ATOM     11  C   UNL     1      43.342  80.196  41.026  0.00  0.00    +0.000 C 
ENDROOT
BRANCH  10  12
ATOM     12  C   UNL     1      47.989  82.487  41.608  0.00  0.00    -0.005 C 
ATOM     13  C   UNL     1      49.040  82.754  42.372  0.00  0.00    -0.021 C 
ATOM     14  C   UNL     1      50.326  82.103  42.084  0.00  0.00    +0.059 C 
ATOM     15  C   UNL     1      51.277  82.409  43.210  0.00  0.00    +0.159 C 
ATOM     16  C   UNL     1      51.420  83.887  43.486  0.00  0.00    +0.071 C 
ATOM     17  C   UNL     1      50.113  84.501  43.935  0.00  0.00    +0.176 C 
ATOM     18  C   UNL     1      48.951  83.682  43.484  0.00  0.00    +0.004 C 
ATOM     19  C   UNL     1      47.818  83.819  44.119  0.00  0.00    -0.002 C 
ATOM     20  O   UNL     1      50.027  85.825  43.514  0.00  0.00    -0.218 OA
ATOM     21  O   UNL     1      52.540  81.903  42.919  0.00  0.00    -0.223 OA
ENDBRANCH  10  12
BRANCH   1  23
ATOM     22  C   UNL     1      41.971  78.137  40.427  0.00  0.00    +0.032 C 
ATOM     23  C   UNL     1      42.930  77.965  39.283  0.00  0.00    +0.115 C 
BRANCH  23  24
ATOM     24  O   UNL     1      42.893  76.690  38.741  0.00  0.00    -0.356 OA
BRANCH  24  25
ATOM     25  C   UNL     1      41.591  76.217  38.599  0.00  0.00    +0.145 C 
BRANCH  25  26
ATOM     26  C   UNL     1      41.365  75.591  37.246  0.00  0.00    +0.062 C 
BRANCH  26  27
ATOM     27  C   UNL     1      39.974  75.069  37.071  0.00  0.00    +0.129 C 
ATOM     28  C   UNL     1      39.430  75.293  35.685  0.00  0.00    +0.033 C 
ATOM     29  C   UNL     1      40.044  73.549  37.267  0.00  0.00    +0.033 C 
ATOM     30  O   UNL     1      39.086  75.558  38.013  0.00  0.00    -0.226 OA
ENDBRANCH  26  27
ENDBRANCH  25  26
ENDBRANCH  24  25
ENDBRANCH  23  24
ENDBRANCH   1  23
TORSDOF 6
