REMARK  Name = Mazindol
REMARK  1 active torsions:
REMARK  status: ('A' for Active; 'I' for Inactive)
REMARK    1  A    between atoms: C_12  and  C_13
REMARK                            x       y       z     vdW  Elec       q    Type
REMARK                         _______ _______ _______ _____ _____    ______ ____
ROOT
ATOM      1  C   UNL     1      45.940  83.030  37.818  0.00  0.00    +0.148 C 
ATOM      2  C   UNL     1      46.270  83.492  39.200  0.00  0.00    +0.121 C 
ATOM      3  N   UNL     1      46.230  82.283  40.028  0.00  0.00    -0.264 N 
ATOM      4  C   UNL     1      45.864  81.241  39.170  0.00  0.00    +0.129 C 
ATOM      5  N   UNL     1      45.699  81.626  37.956  0.00  0.00    -0.254 NA
ATOM      6  C   UNL     1      45.788  80.003  39.979  0.00  0.00    +0.032 A 
ATOM      7  C   UNL     1      45.456  78.694  39.599  0.00  0.00    +0.003 A 
ATOM      8  C   UNL     1      45.438  77.676  40.526  0.00  0.00    +0.000 A 
ATOM      9  C   UNL     1      45.758  78.015  41.821  0.00  0.00    -0.000 A 
ATOM     10  C   UNL     1      46.083  79.288  42.196  0.00  0.00    +0.000 A 
ATOM     11  C   UNL     1      46.106  80.337  41.260  0.00  0.00    +0.029 A 
ATOM     12  C   UNL     1      46.408  81.749  41.341  0.00  0.00    +0.226 C 
ATOM     13  O   UNL     1      45.381  82.337  42.127  0.00  0.00    -0.196 OA
ENDROOT
BRANCH  12  14
ATOM     14  C   UNL     1      47.723  82.063  41.936  0.00  0.00    +0.027 A 
ATOM     15  C   UNL     1      47.801  83.190  42.731  0.00  0.00    +0.001 A 
ATOM     16  C   UNL     1      48.982  83.574  43.341  0.00  0.00    +0.011 A 
ATOM     17  C   UNL     1      50.121  82.827  43.163  0.00  0.00    +0.058 A 
ATOM     18  C   UNL     1      50.056  81.701  42.373  0.00  0.00    +0.011 A 
ATOM     19  C   UNL     1      48.858  81.329  41.767  0.00  0.00    +0.001 A 
ATOM     20 CL   UNL     1      51.635  83.312  43.940  0.00  0.00    -0.082 Cl
ENDBRANCH  12  14
TORSDOF 1
