REMARK  Name = MCB-3837
REMARK  11 active torsions:
REMARK  status: ('A' for Active; 'I' for Inactive)
REMARK    1  A    between atoms: N_4  and  C_5
REMARK    2  A    between atoms: C_5  and  C_6
REMARK    3  A    between atoms: N_8  and  C_12
REMARK    4  A    between atoms: C_15  and  O_18
REMARK    5  A    between atoms: O_18  and  C_19
REMARK    6  A    between atoms: C_19  and  C_20
REMARK    7  A    between atoms: C_20  and  O_44
REMARK    8  A    between atoms: N_23  and  C_26
REMARK    9  A    between atoms: N_32  and  C_40
REMARK   10  A    between atoms: C_34  and  C_37
REMARK   11  A    between atoms: O_44  and  P_45
REMARK                            x       y       z     vdW  Elec       q    Type
REMARK                         _______ _______ _______ _____ _____    ______ ____
ROOT
ATOM      1  C   UNL     1      46.538  80.479  40.197  0.00  0.00    +0.147 C 
ATOM      2  C   UNL     1      47.021  79.031  39.995  0.00  0.00    +0.053 C 
ATOM      3  C   UNL     1      45.871  78.318  39.251  0.00  0.00    +0.093 C 
ATOM      4  N   UNL     1      44.642  78.517  39.985  0.00  0.00    -0.306 N 
ATOM      5  C   UNL     1      44.659  79.239  41.221  0.00  0.00    +0.093 C 
ATOM      6  C   UNL     1      45.517  80.443  41.287  0.00  0.00    +0.053 C 
ENDROOT
BRANCH   4   7
ATOM      7  C   UNL     1      43.444  77.990  39.459  0.00  0.00    +0.077 A 
ATOM      8  C   UNL     1      42.867  78.390  38.274  0.00  0.00    +0.154 A 
ATOM      9  C   UNL     1      41.706  77.823  37.788  0.00  0.00    +0.036 A 
ATOM     10  C   UNL     1      41.066  76.816  38.481  0.00  0.00    +0.057 A 
ATOM     11  C   UNL     1      41.615  76.395  39.666  0.00  0.00    +0.064 A 
ATOM     12  C   UNL     1      42.791  76.972  40.155  0.00  0.00    +0.034 A 
ATOM     13  N   UNL     1      40.994  75.411  40.341  0.00  0.00    -0.328 N 
ATOM     14  C   UNL     1      39.849  74.834  39.880  0.00  0.00    +0.086 A 
ATOM     15  C   UNL     1      39.257  75.227  38.689  0.00  0.00    +0.136 A 
ATOM     16  C   UNL     1      39.897  76.233  38.002  0.00  0.00    +0.205 A 
ATOM     17  O   UNL     1      39.413  76.629  36.924  0.00  0.00    -0.286 OA
ATOM     18  F   UNL     1      43.510  79.390  37.592  0.00  0.00    -0.203 F 
BRANCH  15  19
ATOM     19  C   UNL     1      38.036  74.614  38.206  0.00  0.00    +0.392 C 
ATOM     20  O   UNL     1      37.436  73.756  38.941  0.00  0.00    -0.240 OA
ATOM     21  O   UNL     1      37.431  74.867  36.995  0.00  0.00    -0.240 OA
ENDBRANCH  15  19
BRANCH  13  22
ATOM     22  C   UNL     1      41.592  74.978  41.585  0.00  0.00    +0.086 C 
ATOM     23  C   UNL     1      41.294  73.533  42.024  0.00  0.00    +0.024 C 
ATOM     24  C   UNL     1      42.656  73.916  41.564  0.00  0.00    +0.024 C 
ENDBRANCH  13  22
ENDBRANCH   4   7
BRANCH   1  25
ATOM     25  C   UNL     1      47.627  81.425  40.560  0.00  0.00    +0.233 C 
BRANCH  25  26
ATOM     26  O   UNL     1      47.761  81.847  41.862  0.00  0.00    -0.471 OA
BRANCH  26  30
ATOM     27  C   UNL     1      50.786  82.039  44.768  0.00  0.00    +0.060 A 
ATOM     28  C   UNL     1      49.615  82.765  44.807  0.00  0.00    +0.048 A 
ATOM     29  C   UNL     1      48.646  82.685  43.846  0.00  0.00    +0.175 A 
ATOM     30  C   UNL     1      48.806  81.830  42.739  0.00  0.00    +0.166 A 
ATOM     31  C   UNL     1      49.950  81.100  42.679  0.00  0.00    +0.041 A 
ATOM     32  C   UNL     1      50.927  81.198  43.672  0.00  0.00    +0.018 A 
ATOM     33  F   UNL     1      47.528  83.433  43.962  0.00  0.00    -0.201 F 
BRANCH  27  36
ATOM     34  C   UNL     1      52.742  82.745  47.750  0.00  0.00    +0.212 C 
ATOM     35  C   UNL     1      51.733  81.763  47.130  0.00  0.00    +0.147 C 
ATOM     36  N   UNL     1      51.802  82.134  45.744  0.00  0.00    -0.221 N 
ATOM     37  C   UNL     1      53.138  82.619  45.546  0.00  0.00    +0.409 C 
ATOM     38  O   UNL     1      53.594  82.838  44.394  0.00  0.00    -0.226 OA
ATOM     39  O   UNL     1      53.749  82.775  46.781  0.00  0.00    -0.434 OA
BRANCH  34  40
ATOM     40  C   UNL     1      53.147  82.304  49.114  0.00  0.00    +0.160 C 
BRANCH  40  44
ATOM     41  C   UNL     1      56.947  82.290  49.483  0.00  0.00    +0.096 C 
ATOM     42  C   UNL     1      55.550  82.836  49.454  0.00  0.00    +0.242 C 
ATOM     43  O   UNL     1      55.369  84.062  49.630  0.00  0.00    -0.273 OA
ATOM     44  N   UNL     1      54.513  81.912  49.226  0.00  0.00    -0.201 NA
ENDBRANCH  40  44
ENDBRANCH  34  40
ENDBRANCH  27  36
ENDBRANCH  26  30
ENDBRANCH  25  26
ENDBRANCH   1  25
BRANCH   1  45
ATOM     45  O   UNL     1      46.021  80.767  38.917  0.00  0.00    -0.271 OA
BRANCH  45  46
ATOM     46  P   UNL     1      46.080  82.351  38.453  0.00  0.00    +0.533 P 
ATOM     47  O   UNL     1      47.130  83.195  39.090  0.00  0.00    -0.222 OA
ATOM     48  O   UNL     1      44.567  83.046  38.896  0.00  0.00    -0.115 OA
ATOM     49  O   UNL     1      46.149  82.552  36.755  0.00  0.00    -0.115 OA
ENDBRANCH  45  46
ENDBRANCH   1  45
TORSDOF 11
