REMARK  Name = Mebeverine
REMARK  14 active torsions:
REMARK  status: ('A' for Active; 'I' for Inactive)
REMARK    1  A    between atoms: C_2  and  N_3
REMARK    2  A    between atoms: N_3  and  C_4
REMARK    3  A    between atoms: N_3  and  C_21
REMARK    4  A    between atoms: C_4  and  C_5
REMARK    5  A    between atoms: C_5  and  C_6
REMARK    6  A    between atoms: C_6  and  C_7
REMARK    7  A    between atoms: C_7  and  O_8
REMARK    8  A    between atoms: O_8  and  C_9
REMARK    9  A    between atoms: C_9  and  C_11
REMARK   10  A    between atoms: C_13  and  O_19
REMARK   11  A    between atoms: C_14  and  O_17
REMARK   12  A    between atoms: C_21  and  C_23
REMARK   13  A    between atoms: C_23  and  C_24
REMARK   14  A    between atoms: C_27  and  O_30
REMARK                            x       y       z     vdW  Elec       q    Type
REMARK                         _______ _______ _______ _____ _____    ______ ____
ROOT
ATOM      1  C   UNL     1      44.494  78.507  39.698  0.00  0.00    +0.021 C 
ENDROOT
BRANCH   1   2
ATOM      2  C   UNL     1      44.902  79.883  40.106  0.00  0.00    +0.072 C 
BRANCH   2   3
ATOM      3  N   UNL     1      46.211  80.303  39.950  0.00  0.00    -0.274 NA
BRANCH   3   5
ATOM      4  C   UNL     1      45.303  82.024  38.543  0.00  0.00    +0.019 C 
ATOM      5  C   UNL     1      46.383  80.936  38.623  0.00  0.00    +0.072 C 
ENDBRANCH   3   5
BRANCH   3   6
ATOM      6  C   UNL     1      47.009  80.950  40.863  0.00  0.00    +0.062 C 
ATOM      7  C   UNL     1      47.294  80.070  42.100  0.00  0.00    +0.018 C 
BRANCH   6   8
ATOM      8  C   UNL     1      46.720  82.309  41.371  0.00  0.00    +0.042 C 
BRANCH   8   9
ATOM      9  C   UNL     1      47.938  82.776  42.147  0.00  0.00    -0.021 A 
ATOM     10  C   UNL     1      49.206  82.677  41.604  0.00  0.00    -0.001 A 
ATOM     11  C   UNL     1      50.329  83.104  42.280  0.00  0.00    +0.037 A 
ATOM     12  C   UNL     1      50.223  83.652  43.540  0.00  0.00    +0.139 A 
ATOM     13  C   UNL     1      48.965  83.755  44.091  0.00  0.00    +0.037 A 
ATOM     14  C   UNL     1      47.846  83.325  43.405  0.00  0.00    -0.001 A 
BRANCH  12  15
ATOM     15  O   UNL     1      51.362  84.091  44.238  0.00  0.00    -0.471 OA
ATOM     16  C   UNL     1      52.589  84.091  43.568  0.00  0.00    +0.252 C 
ENDBRANCH  12  15
ENDBRANCH   8   9
ENDBRANCH   6   8
ENDBRANCH   3   6
ENDBRANCH   2   3
ENDBRANCH   1   2
BRANCH   1  17
ATOM     17  C   UNL     1      43.402  77.931  40.560  0.00  0.00    +0.049 C 
BRANCH  17  18
ATOM     18  C   UNL     1      42.887  76.621  40.065  0.00  0.00    +0.209 C 
BRANCH  18  19
ATOM     19  O   UNL     1      41.489  76.615  39.849  0.00  0.00    -0.445 OA
BRANCH  19  20
ATOM     20  C   UNL     1      40.972  76.980  38.623  0.00  0.00    +0.341 C 
ATOM     21  O   UNL     1      40.782  78.205  38.425  0.00  0.00    -0.245 OA
BRANCH  20  22
ATOM     22  C   UNL     1      40.646  76.026  37.575  0.00  0.00    +0.079 A 
ATOM     23  C   UNL     1      40.890  74.682  37.765  0.00  0.00    +0.046 A 
ATOM     24  C   UNL     1      40.597  73.732  36.800  0.00  0.00    +0.173 A 
ATOM     25  C   UNL     1      40.043  74.120  35.601  0.00  0.00    +0.172 A 
ATOM     26  C   UNL     1      39.792  75.459  35.392  0.00  0.00    +0.040 A 
ATOM     27  C   UNL     1      40.093  76.401  36.376  0.00  0.00    +0.010 A 
BRANCH  25  28
ATOM     28  O   UNL     1      39.753  73.163  34.641  0.00  0.00    -0.468 OA
ATOM     29  C   UNL     1      39.009  73.564  33.508  0.00  0.00    +0.253 C 
ENDBRANCH  25  28
BRANCH  24  30
ATOM     30  O   UNL     1      40.841  72.380  36.989  0.00  0.00    -0.468 OA
ATOM     31  C   UNL     1      41.866  71.993  37.894  0.00  0.00    +0.253 C 
ENDBRANCH  24  30
ENDBRANCH  20  22
ENDBRANCH  19  20
ENDBRANCH  18  19
ENDBRANCH  17  18
ENDBRANCH   1  17
TORSDOF 14
