REMARK  Name = Mebendazole
REMARK  3 active torsions:
REMARK  status: ('A' for Active; 'I' for Inactive)
REMARK    1  A    between atoms: O_2  and  C_3
REMARK    2  A    between atoms: C_12  and  C_15
REMARK    3  A    between atoms: C_15  and  C_17
REMARK                            x       y       z     vdW  Elec       q    Type
REMARK                         _______ _______ _______ _____ _____    ______ ____
ROOT
ATOM      1  C   UNL     1      42.524  78.694  38.258  0.00  0.00    +0.428 C 
ATOM      2  O   UNL     1      42.918  78.235  39.348  0.00  0.00    -0.224 OA
ATOM      3  N   UNL     1      43.145  79.879  37.741  0.00  0.00    -0.106 NA
ATOM      4  C   UNL     1      44.233  80.495  38.458  0.00  0.00    +0.246 A 
ATOM      5  N   UNL     1      44.894  81.620  38.131  0.00  0.00    -0.211 NA
ATOM      6  C   UNL     1      45.854  81.889  39.044  0.00  0.00    +0.102 A 
ATOM      7  C   UNL     1      45.791  80.881  39.989  0.00  0.00    +0.102 A 
ATOM      8  N   UNL     1      44.799  80.060  39.597  0.00  0.00    -0.211 NA
ATOM      9  C   UNL     1      46.671  80.893  41.062  0.00  0.00    +0.024 A 
ATOM     10  C   UNL     1      47.612  81.890  41.212  0.00  0.00    +0.041 A 
ATOM     11  C   UNL     1      47.656  82.879  40.263  0.00  0.00    +0.005 A 
ATOM     12  C   UNL     1      46.789  82.898  39.173  0.00  0.00    +0.021 A 
ENDROOT
BRANCH   1  14
ATOM     13  C   UNL     1      40.998  76.879  37.917  0.00  0.00    +0.257 C 
ATOM     14  O   UNL     1      41.513  78.130  37.503  0.00  0.00    -0.429 OA
ENDBRANCH   1  14
BRANCH  10  15
ATOM     15  C   UNL     1      48.525  81.901  42.344  0.00  0.00    +0.196 C 
ATOM     16  O   UNL     1      48.811  80.750  42.833  0.00  0.00    -0.287 OA
BRANCH  15  17
ATOM     17  C   UNL     1      49.112  83.086  42.936  0.00  0.00    +0.039 A 
ATOM     18  C   UNL     1      48.256  84.076  43.388  0.00  0.00    +0.003 A 
ATOM     19  C   UNL     1      48.705  85.242  43.975  0.00  0.00    +0.000 A 
ATOM     20  C   UNL     1      50.055  85.442  44.122  0.00  0.00    +0.000 A 
ATOM     21  C   UNL     1      50.929  84.469  43.679  0.00  0.00    +0.000 A 
ATOM     22  C   UNL     1      50.466  83.296  43.089  0.00  0.00    +0.003 A 
ENDBRANCH  15  17
ENDBRANCH  10  15
TORSDOF 3
