REMARK  Name = Mebutamate
REMARK  8 active torsions:
REMARK  status: ('A' for Active; 'I' for Inactive)
REMARK    1  A    between atoms: C_2  and  C_3
REMARK    2  A    between atoms: C_3  and  C_5
REMARK    3  A    between atoms: C_5  and  C_7
REMARK    4  A    between atoms: C_5  and  C_12
REMARK    5  A    between atoms: C_7  and  O_8
REMARK    6  A    between atoms: O_8  and  C_9
REMARK    7  A    between atoms: C_12  and  O_13
REMARK    8  A    between atoms: O_13  and  C_14
REMARK                            x       y       z     vdW  Elec       q    Type
REMARK                         _______ _______ _______ _____ _____    ______ ____
ROOT
ATOM      1  C   UNL     1      48.157  81.755  42.169  0.00  0.00    +0.081 C 
ATOM      2  C   UNL     1      48.145  81.180  43.554  0.00  0.00    +0.007 C 
ENDROOT
BRANCH   1   3
ATOM      3  C   UNL     1      47.758  83.180  42.072  0.00  0.00    +0.007 C 
ATOM      4  C   UNL     1      48.117  83.872  40.794  0.00  0.00    +0.000 C 
BRANCH   3   6
ATOM      5  C   UNL     1      47.278  85.070  43.624  0.00  0.00    +0.000 C 
ATOM      6  C   UNL     1      48.309  84.012  43.209  0.00  0.00    +0.000 C 
ENDBRANCH   3   6
ENDBRANCH   1   3
BRANCH   1   7
ATOM      7  C   UNL     1      49.577  81.589  41.665  0.00  0.00    +0.214 C 
BRANCH   7   8
ATOM      8  O   UNL     1      50.482  82.391  42.416  0.00  0.00    -0.432 OA
BRANCH   8   9
ATOM      9  C   UNL     1      51.831  82.439  42.157  0.00  0.00    +0.441 C 
ATOM     10  O   UNL     1      52.210  82.564  40.948  0.00  0.00    -0.223 OA
ATOM     11  N   UNL     1      52.836  82.358  43.148  0.00  0.00    -0.048 NA
ENDBRANCH   8   9
ENDBRANCH   7   8
ENDBRANCH   1   7
BRANCH   1  12
ATOM     12  C   UNL     1      47.278  80.888  41.285  0.00  0.00    +0.214 C 
BRANCH  12  13
ATOM     13  O   UNL     1      47.012  81.530  40.053  0.00  0.00    -0.432 OA
BRANCH  13  14
ATOM     14  C   UNL     1      46.025  80.958  39.254  0.00  0.00    +0.441 C 
ATOM     15  O   UNL     1      45.428  79.907  39.620  0.00  0.00    -0.223 OA
ATOM     16  N   UNL     1      45.679  81.552  38.014  0.00  0.00    -0.048 NA
ENDBRANCH  13  14
ENDBRANCH  12  13
ENDBRANCH   1  12
TORSDOF 8
