REMARK  Name = Meclofenamic_acid
REMARK  3 active torsions:
REMARK  status: ('A' for Active; 'I' for Inactive)
REMARK    1  A    between atoms: C_4  and  N_9
REMARK    2  A    between atoms: N_9  and  C_10
REMARK    3  A    between atoms: C_15  and  C_16
REMARK                            x       y       z     vdW  Elec       q    Type
REMARK                         _______ _______ _______ _____ _____    ______ ____
ROOT
ATOM      1  N   UNL     1      47.324  82.330  41.233  0.00  0.00    -0.211 NA
ENDROOT
BRANCH   1   5
ATOM      2  C   UNL     1      51.966  81.927  42.766  0.00  0.00    +0.032 C 
ATOM      3  C   UNL     1      50.636  82.611  42.841  0.00  0.00    -0.010 A 
ATOM      4  C   UNL     1      49.586  82.175  42.058  0.00  0.00    +0.070 A 
ATOM      5  C   UNL     1      48.323  82.772  42.084  0.00  0.00    +0.091 A 
ATOM      6  C   UNL     1      48.181  83.838  42.948  0.00  0.00    +0.074 A 
ATOM      7  C   UNL     1      49.225  84.284  43.738  0.00  0.00    +0.012 A 
ATOM      8  C   UNL     1      50.463  83.678  43.695  0.00  0.00    -0.002 A 
ATOM      9 CL   UNL     1      46.598  84.634  43.007  0.00  0.00    -0.081 Cl
ATOM     10 CL   UNL     1      49.775  80.811  40.954  0.00  0.00    -0.081 Cl
ENDBRANCH   1   5
BRANCH   1  11
ATOM     11  C   UNL     1      46.673  81.092  41.125  0.00  0.00    +0.077 A 
ATOM     12  C   UNL     1      46.963  80.163  42.131  0.00  0.00    +0.017 A 
ATOM     13  C   UNL     1      46.387  78.940  42.122  0.00  0.00    +0.001 A 
ATOM     14  C   UNL     1      45.506  78.582  41.130  0.00  0.00    +0.000 A 
ATOM     15  C   UNL     1      45.227  79.498  40.148  0.00  0.00    +0.008 A 
ATOM     16  C   UNL     1      45.814  80.776  40.134  0.00  0.00    +0.095 A 
BRANCH  16  17
ATOM     17  C   UNL     1      45.453  81.665  39.007  0.00  0.00    +0.389 C 
ATOM     18  O   UNL     1      44.582  81.277  38.187  0.00  0.00    -0.241 OA
ATOM     19  O   UNL     1      45.999  82.888  38.782  0.00  0.00    -0.241 OA
ENDBRANCH  16  17
ENDBRANCH   1  11
TORSDOF 3
