REMARK  Name = Meclocycline
REMARK  2 active torsions:
REMARK  status: ('A' for Active; 'I' for Inactive)
REMARK    1  A    between atoms: N_2  and  C_4
REMARK    2  A    between atoms: C_22  and  C_25
REMARK                            x       y       z     vdW  Elec       q    Type
REMARK                         _______ _______ _______ _____ _____    ______ ____
ROOT
ATOM      1  C   UNL     1      43.351  76.284  40.385  0.00  0.00    +0.126 C 
ATOM      2  C   UNL     1      43.711  77.722  40.259  0.00  0.00    +0.096 C 
ATOM      3  C   UNL     1      45.204  77.992  40.486  0.00  0.00    +0.165 C 
ATOM      4  C   UNL     1      45.229  79.435  40.971  0.00  0.00    +0.081 C 
ATOM      5  C   UNL     1      46.432  79.870  41.649  0.00  0.00    -0.015 C 
ATOM      6  C   UNL     1      46.811  79.210  42.754  0.00  0.00    -0.004 C 
ATOM      7  C   UNL     1      47.204  81.008  41.191  0.00  0.00    +0.013 A 
ATOM      8  C   UNL     1      48.337  81.487  41.782  0.00  0.00    +0.058 A 
ATOM      9  C   UNL     1      49.014  82.599  41.261  0.00  0.00    +0.015 A 
ATOM     10  C   UNL     1      48.586  83.265  40.141  0.00  0.00    +0.043 A 
ATOM     11  C   UNL     1      47.446  82.793  39.539  0.00  0.00    +0.199 A 
ATOM     12  C   UNL     1      46.783  81.701  40.051  0.00  0.00    +0.078 A 
ATOM     13  C   UNL     1      45.581  81.238  39.377  0.00  0.00    +0.198 C 
ATOM     14  C   UNL     1      44.878  80.224  39.776  0.00  0.00    +0.061 C 
ATOM     15  C   UNL     1      43.697  79.777  38.974  0.00  0.00    +0.207 C 
ATOM     16  O   UNL     1      43.018  80.613  38.363  0.00  0.00    -0.289 OA
ATOM     17  C   UNL     1      43.378  78.331  38.938  0.00  0.00    +0.239 C 
ATOM     18  C   UNL     1      41.992  78.110  38.508  0.00  0.00    +0.215 C 
ATOM     19  C   UNL     1      41.421  76.953  38.775  0.00  0.00    +0.130 C 
ATOM     20  C   UNL     1      42.214  75.949  39.491  0.00  0.00    +0.195 C 
ATOM     21  O   UNL     1      41.929  74.734  39.351  0.00  0.00    -0.290 OA
ATOM     22  O   UNL     1      41.353  79.141  37.839  0.00  0.00    -0.288 OA
ATOM     23  O   UNL     1      44.266  77.756  37.992  0.00  0.00    -0.210 OA
ATOM     24  O   UNL     1      45.155  81.927  38.232  0.00  0.00    -0.287 OA
ATOM     25  O   UNL     1      46.981  83.438  38.406  0.00  0.00    -0.286 OA
ATOM     26 CL   UNL     1      49.016  80.757  43.208  0.00  0.00    -0.082 Cl
ATOM     27  O   UNL     1      45.840  77.087  41.256  0.00  0.00    -0.222 OA
ENDROOT
BRANCH   1  29
ATOM     28  C   UNL     1      41.625  75.831  42.005  0.00  0.00    +0.090 C 
ATOM     29  N   UNL     1      43.009  75.845  41.693  0.00  0.00    -0.265 NA
ATOM     30  C   UNL     1      43.800  74.823  42.259  0.00  0.00    +0.090 C 
ENDBRANCH   1  29
BRANCH  19  31
ATOM     31  C   UNL     1      40.059  76.712  38.362  0.00  0.00    +0.290 C 
ATOM     32  O   UNL     1      39.268  76.158  39.148  0.00  0.00    -0.266 OA
ATOM     33  N   UNL     1      39.609  77.093  37.084  0.00  0.00    -0.084 NA
ENDBRANCH  19  31
TORSDOF 2
