REMARK  Name = Medroxyprogesterone
REMARK  1 active torsions:
REMARK  status: ('A' for Active; 'I' for Inactive)
REMARK    1  A    between atoms: C_12  and  C_13
REMARK                            x       y       z     vdW  Elec       q    Type
REMARK                         _______ _______ _______ _____ _____    ______ ____
ROOT
ATOM      1  C   UNL     1      46.543  82.977  38.297  0.00  0.00    +0.004 C 
ATOM      2  C   UNL     1      46.992  81.516  38.172  0.00  0.00    +0.018 C 
ATOM      3  C   UNL     1      48.389  81.450  38.735  0.00  0.00    +0.004 C 
ATOM      4  C   UNL     1      48.254  81.577  40.229  0.00  0.00    +0.001 C 
ATOM      5  C   UNL     1      47.558  80.394  40.858  0.00  0.00    +0.003 C 
ATOM      6  C   UNL     1      47.014  80.881  42.175  0.00  0.00    +0.000 C 
ATOM      7  C   UNL     1      47.798  82.074  42.704  0.00  0.00    +0.003 C 
ATOM      8  C   UNL     1      49.268  81.893  42.419  0.00  0.00    +0.032 C 
ATOM      9  C   UNL     1      49.549  81.818  40.935  0.00  0.00    +0.003 C 
ATOM     10  C   UNL     1      50.068  83.162  40.505  0.00  0.00    +0.003 C 
ATOM     11  C   UNL     1      50.263  83.990  41.729  0.00  0.00    +0.038 C 
ATOM     12  C   UNL     1      50.097  83.045  42.894  0.00  0.00    +0.177 C 
ATOM     13  O   UNL     1      51.368  82.584  43.217  0.00  0.00    -0.218 OA
ATOM     14  C   UNL     1      49.766  80.648  43.125  0.00  0.00    +0.003 C 
ATOM     15  C   UNL     1      46.527  79.752  39.957  0.00  0.00    +0.016 C 
ATOM     16  C   UNL     1      46.028  80.708  38.951  0.00  0.00    -0.042 C 
ATOM     17  C   UNL     1      44.755  80.891  38.695  0.00  0.00    +0.029 C 
ATOM     18  C   UNL     1      43.715  80.142  39.409  0.00  0.00    +0.173 C 
ATOM     19  O   UNL     1      42.541  80.028  38.917  0.00  0.00    -0.291 OA
ATOM     20  C   UNL     1      44.104  79.549  40.690  0.00  0.00    +0.069 C 
ATOM     21  C   UNL     1      45.509  79.068  40.774  0.00  0.00    +0.012 C 
ATOM     22  C   UNL     1      47.291  78.684  39.151  0.00  0.00    +0.004 C 
ENDROOT
BRANCH  12  23
ATOM     23  C   UNL     1      49.540  83.798  44.011  0.00  0.00    +0.178 C 
ATOM     24  O   UNL     1      50.067  83.855  45.112  0.00  0.00    -0.293 OA
ATOM     25  C   UNL     1      48.268  84.544  43.835  0.00  0.00    +0.075 C 
ENDBRANCH  12  23
TORSDOF 1
