REMARK  Name = Medrysone
REMARK  1 active torsions:
REMARK  status: ('A' for Active; 'I' for Inactive)
REMARK    1  A    between atoms: C_8  and  C_23
REMARK                            x       y       z     vdW  Elec       q    Type
REMARK                         _______ _______ _______ _____ _____    ______ ____
ROOT
ATOM      1  C   UNL     1      45.652  76.375  40.627  0.00  0.00    +0.004 C 
ATOM      2  C   UNL     1      44.806  77.507  41.184  0.00  0.00    +0.018 C 
ATOM      3  C   UNL     1      45.652  78.589  41.797  0.00  0.00    +0.004 C 
ATOM      4  C   UNL     1      46.175  79.593  40.833  0.00  0.00    +0.003 C 
ATOM      5  C   UNL     1      46.242  81.003  41.381  0.00  0.00    +0.001 C 
ATOM      6  C   UNL     1      46.836  81.040  42.752  0.00  0.00    +0.000 C 
ATOM      7  C   UNL     1      48.319  80.782  42.528  0.00  0.00    +0.007 C 
ATOM      8  C   UNL     1      48.597  81.504  41.226  0.00  0.00    +0.058 C 
ATOM      9  C   UNL     1      47.284  81.756  40.551  0.00  0.00    +0.009 C 
ATOM     10  C   UNL     1      47.315  81.186  39.144  0.00  0.00    +0.033 C 
ATOM     11  C   UNL     1      45.955  80.734  38.666  0.00  0.00    +0.152 C 
ATOM     12  C   UNL     1      45.502  79.572  39.486  0.00  0.00    +0.034 C 
ATOM     13  C   UNL     1      44.038  79.335  39.536  0.00  0.00    +0.018 C 
ATOM     14  C   UNL     1      43.870  77.976  40.169  0.00  0.00    -0.042 C 
ATOM     15  C   UNL     1      42.872  77.183  39.819  0.00  0.00    +0.029 C 
ATOM     16  C   UNL     1      41.900  77.569  38.823  0.00  0.00    +0.173 C 
ATOM     17  O   UNL     1      40.846  76.900  38.600  0.00  0.00    -0.291 OA
ATOM     18  C   UNL     1      42.116  78.778  38.024  0.00  0.00    +0.069 C 
ATOM     19  C   UNL     1      43.504  79.330  38.120  0.00  0.00    +0.012 C 
ATOM     20  C   UNL     1      43.234  80.287  40.338  0.00  0.00    +0.004 C 
ATOM     21  O   UNL     1      45.111  81.803  38.630  0.00  0.00    -0.223 OA
ATOM     22  C   UNL     1      46.969  83.212  40.532  0.00  0.00    +0.001 C 
ENDROOT
BRANCH   8  23
ATOM     23  C   UNL     1      49.464  82.674  41.401  0.00  0.00    +0.151 C 
ATOM     24  O   UNL     1      49.560  83.188  42.528  0.00  0.00    -0.296 OA
ATOM     25  C   UNL     1      50.267  83.345  40.351  0.00  0.00    +0.072 C 
ENDBRANCH   8  23
TORSDOF 1
