REMARK  Name = Mefenamic_acid
REMARK  3 active torsions:
REMARK  status: ('A' for Active; 'I' for Inactive)
REMARK    1  A    between atoms: C_4  and  N_8
REMARK    2  A    between atoms: N_8  and  C_9
REMARK    3  A    between atoms: C_14  and  C_15
REMARK                            x       y       z     vdW  Elec       q    Type
REMARK                         _______ _______ _______ _____ _____    ______ ____
ROOT
ATOM      1  N   UNL     1      48.487  81.436  41.674  0.00  0.00    -0.213 NA
ENDROOT
BRANCH   1   5
ATOM      2  C   UNL     1      44.661  78.987  39.871  0.00  0.00    +0.031 C 
ATOM      3  C   UNL     1      45.520  80.201  39.878  0.00  0.00    -0.025 A 
ATOM      4  C   UNL     1      46.599  80.267  40.738  0.00  0.00    -0.011 A 
ATOM      5  C   UNL     1      47.388  81.385  40.742  0.00  0.00    +0.066 A 
ATOM      6  C   UNL     1      47.121  82.430  39.911  0.00  0.00    +0.016 A 
ATOM      7  C   UNL     1      46.050  82.372  39.055  0.00  0.00    +0.001 A 
ATOM      8  C   UNL     1      45.259  81.257  39.047  0.00  0.00    -0.004 A 
ATOM      9  C   UNL     1      46.824  79.122  41.640  0.00  0.00    +0.032 C 
ENDBRANCH   1   5
BRANCH   1  10
ATOM     10  C   UNL     1      48.712  82.653  42.355  0.00  0.00    +0.077 A 
ATOM     11  C   UNL     1      47.612  83.471  42.616  0.00  0.00    +0.017 A 
ATOM     12  C   UNL     1      47.776  84.669  43.258  0.00  0.00    +0.001 A 
ATOM     13  C   UNL     1      49.043  85.058  43.646  0.00  0.00    +0.000 A 
ATOM     14  C   UNL     1      50.139  84.290  43.411  0.00  0.00    +0.008 A 
ATOM     15  C   UNL     1      49.979  83.058  42.751  0.00  0.00    +0.095 A 
BRANCH  15  16
ATOM     16  C   UNL     1      51.159  82.245  42.496  0.00  0.00    +0.389 C 
ATOM     17  O   UNL     1      51.198  81.308  41.692  0.00  0.00    -0.241 OA
ATOM     18  O   UNL     1      52.329  82.563  43.224  0.00  0.00    -0.241 OA
ENDBRANCH  15  16
ENDBRANCH   1  10
TORSDOF 3
