REMARK  Name = Megestrol
REMARK  1 active torsions:
REMARK  status: ('A' for Active; 'I' for Inactive)
REMARK    1  A    between atoms: C_12  and  C_13
REMARK                            x       y       z     vdW  Elec       q    Type
REMARK                         _______ _______ _______ _____ _____    ______ ____
ROOT
ATOM      1  C   UNL     1      45.705  77.652  42.110  0.00  0.00    +0.030 C 
ATOM      2  C   UNL     1      46.046  79.049  41.759  0.00  0.00    -0.030 C 
ATOM      3  C   UNL     1      46.792  79.780  42.567  0.00  0.00    -0.031 C 
ATOM      4  C   UNL     1      47.107  81.172  42.175  0.00  0.00    +0.022 C 
ATOM      5  C   UNL     1      47.389  81.229  40.688  0.00  0.00    +0.008 C 
ATOM      6  C   UNL     1      47.751  82.635  40.360  0.00  0.00    +0.001 C 
ATOM      7  C   UNL     1      49.136  82.903  40.953  0.00  0.00    +0.003 C 
ATOM      8  C   UNL     1      49.431  82.128  42.176  0.00  0.00    +0.033 C 
ATOM      9  C   UNL     1      48.190  81.778  42.975  0.00  0.00    +0.007 C 
ATOM     10  C   UNL     1      47.811  83.079  43.674  0.00  0.00    +0.003 C 
ATOM     11  C   UNL     1      49.087  83.900  43.658  0.00  0.00    +0.038 C 
ATOM     12  C   UNL     1      50.187  83.009  43.163  0.00  0.00    +0.177 C 
ATOM     13  O   UNL     1      50.607  82.162  44.215  0.00  0.00    -0.218 OA
ATOM     14  C   UNL     1      50.258  80.887  41.976  0.00  0.00    +0.003 C 
ATOM     15  C   UNL     1      46.297  80.672  39.843  0.00  0.00    +0.019 C 
ATOM     16  C   UNL     1      45.539  79.606  40.502  0.00  0.00    -0.024 C 
ATOM     17  C   UNL     1      44.412  79.138  39.987  0.00  0.00    +0.033 C 
ATOM     18  C   UNL     1      43.928  79.704  38.741  0.00  0.00    +0.173 C 
ATOM     19  O   UNL     1      43.072  79.123  38.059  0.00  0.00    -0.291 OA
ATOM     20  C   UNL     1      44.468  81.006  38.273  0.00  0.00    +0.069 C 
ATOM     21  C   UNL     1      45.305  81.695  39.334  0.00  0.00    +0.012 C 
ATOM     22  C   UNL     1      46.943  80.073  38.586  0.00  0.00    +0.004 C 
ENDROOT
BRANCH  12  23
ATOM     23  C   UNL     1      51.320  83.743  42.597  0.00  0.00    +0.178 C 
ATOM     24  O   UNL     1      52.401  83.246  42.364  0.00  0.00    -0.293 OA
ATOM     25  C   UNL     1      51.178  85.208  42.271  0.00  0.00    +0.075 C 
ENDBRANCH  12  23
TORSDOF 1
