REMARK  Name = Melatonin
REMARK  4 active torsions:
REMARK  status: ('A' for Active; 'I' for Inactive)
REMARK    1  A    between atoms: N_4  and  C_5
REMARK    2  A    between atoms: C_5  and  C_6
REMARK    3  A    between atoms: C_6  and  C_7
REMARK    4  A    between atoms: C_13  and  O_16
REMARK                            x       y       z     vdW  Elec       q    Type
REMARK                         _______ _______ _______ _____ _____    ______ ____
ROOT
ATOM      1  C   UNL     1      47.067  81.372  40.745  0.00  0.00    +0.000 A 
ATOM      2  C   UNL     1      47.193  82.512  39.970  0.00  0.00    +0.095 A 
ATOM      3  N   UNL     1      46.283  82.491  38.965  0.00  0.00    -0.244 NA
ATOM      4  C   UNL     1      45.586  81.350  39.100  0.00  0.00    +0.081 A 
ATOM      5  C   UNL     1      46.054  80.633  40.202  0.00  0.00    +0.018 A 
ATOM      6  C   UNL     1      45.478  79.430  40.533  0.00  0.00    +0.038 A 
ATOM      7  C   UNL     1      44.433  78.927  39.772  0.00  0.00    +0.139 A 
ATOM      8  C   UNL     1      43.962  79.626  38.678  0.00  0.00    +0.038 A 
ATOM      9  C   UNL     1      44.550  80.831  38.361  0.00  0.00    +0.022 A 
ENDROOT
BRANCH   7  10
ATOM     10  O   UNL     1      43.850  77.727  40.093  0.00  0.00    -0.471 OA
ATOM     11  C   UNL     1      44.402  76.830  41.030  0.00  0.00    +0.252 C 
ENDBRANCH   7  10
BRANCH   1  12
ATOM     12  C   UNL     1      47.892  81.038  41.933  0.00  0.00    +0.051 C 
BRANCH  12  13
ATOM     13  C   UNL     1      49.106  81.963  41.962  0.00  0.00    +0.120 C 
BRANCH  13  17
ATOM     14  C   UNL     1      49.798  85.220  43.936  0.00  0.00    +0.096 C 
ATOM     15  C   UNL     1      49.974  84.044  43.024  0.00  0.00    +0.242 C 
ATOM     16  O   UNL     1      51.102  83.882  42.483  0.00  0.00    -0.273 OA
ATOM     17  N   UNL     1      48.922  83.130  42.763  0.00  0.00    -0.205 NA
ENDBRANCH  13  17
ENDBRANCH  12  13
ENDBRANCH   1  12
TORSDOF 4
