REMARK  Name = Melevodopa
REMARK  4 active torsions:
REMARK  status: ('A' for Active; 'I' for Inactive)
REMARK    1  A    between atoms: O_2  and  C_3
REMARK    2  A    between atoms: C_3  and  C_5
REMARK    3  A    between atoms: C_5  and  C_6
REMARK    4  A    between atoms: C_6  and  C_7
REMARK                            x       y       z     vdW  Elec       q    Type
REMARK                         _______ _______ _______ _____ _____    ______ ____
ROOT
ATOM      1  C   UNL     1      47.637  81.406  41.366  0.00  0.00    -0.017 A 
ATOM      2  C   UNL     1      46.629  80.490  41.076  0.00  0.00    +0.041 A 
ATOM      3  C   UNL     1      45.757  80.653  40.021  0.00  0.00    +0.234 A 
ATOM      4  C   UNL     1      45.853  81.750  39.197  0.00  0.00    +0.234 A 
ATOM      5  C   UNL     1      46.844  82.668  39.467  0.00  0.00    +0.045 A 
ATOM      6  C   UNL     1      47.719  82.499  40.531  0.00  0.00    -0.001 A 
ATOM      7  O   UNL     1      44.993  81.946  38.125  0.00  0.00    -0.283 OA
ATOM      8  O   UNL     1      44.750  79.730  39.737  0.00  0.00    -0.283 OA
ENDROOT
BRANCH   1   9
ATOM      9  C   UNL     1      48.559  81.194  42.513  0.00  0.00    +0.057 C 
BRANCH   9  10
ATOM     10  C   UNL     1      50.008  81.409  42.130  0.00  0.00    +0.194 C 
ATOM     11  N   UNL     1      50.783  80.186  42.309  0.00  0.00    -0.121 NA
BRANCH  10  12
ATOM     12  C   UNL     1      50.620  82.552  42.845  0.00  0.00    +0.335 C 
ATOM     13  O   UNL     1      51.691  82.331  43.468  0.00  0.00    -0.248 OA
BRANCH  12  15
ATOM     14  C   UNL     1      50.546  84.824  43.791  0.00  0.00    +0.256 C 
ATOM     15  O   UNL     1      50.108  83.821  42.874  0.00  0.00    -0.443 OA
ENDBRANCH  12  15
ENDBRANCH  10  12
ENDBRANCH   9  10
ENDBRANCH   1   9
TORSDOF 4
