REMARK  Name = Melinamide
REMARK  16 active torsions:
REMARK  status: ('A' for Active; 'I' for Inactive)
REMARK    1  A    between atoms: C_2  and  C_3
REMARK    2  A    between atoms: C_3  and  C_4
REMARK    3  A    between atoms: C_4  and  C_5
REMARK    4  A    between atoms: C_5  and  C_6
REMARK    5  A    between atoms: C_7  and  C_8
REMARK    6  A    between atoms: C_8  and  C_9
REMARK    7  A    between atoms: C_10  and  C_11
REMARK    8  A    between atoms: C_11  and  C_12
REMARK    9  A    between atoms: C_12  and  C_13
REMARK   10  A    between atoms: C_13  and  C_14
REMARK   11  A    between atoms: C_14  and  C_15
REMARK   12  A    between atoms: C_15  and  C_16
REMARK   13  A    between atoms: C_16  and  C_17
REMARK   14  A    between atoms: C_17  and  C_18
REMARK   15  A    between atoms: N_20  and  C_21
REMARK   16  A    between atoms: C_21  and  C_23
REMARK                            x       y       z     vdW  Elec       q    Type
REMARK                         _______ _______ _______ _____ _____    ______ ____
ROOT
ATOM      1  C   UNL     1      48.007  82.506  40.665  0.00  0.00    +0.000 C 
ENDROOT
BRANCH   1   2
ATOM      2  C   UNL     1      46.582  82.143  40.399  0.00  0.00    +0.001 C 
BRANCH   2   3
ATOM      3  C   UNL     1      45.987  82.221  39.079  0.00  0.00    +0.010 C 
BRANCH   3   4
ATOM      4  C   UNL     1      45.558  81.045  38.304  0.00  0.00    +0.087 C 
BRANCH   4   5
ATOM      5  C   UNL     1      44.139  80.641  38.695  0.00  0.00    +0.242 C 
ATOM      6  O   UNL     1      43.520  81.317  39.534  0.00  0.00    -0.273 OA
ATOM      7  N   UNL     1      43.552  79.512  38.106  0.00  0.00    -0.203 NA
BRANCH   7   8
ATOM      8  C   UNL     1      42.294  79.015  38.615  0.00  0.00    +0.118 C 
ATOM      9  C   UNL     1      41.453  78.332  37.572  0.00  0.00    +0.028 C 
BRANCH   8  10
ATOM     10  C   UNL     1      42.662  78.047  39.712  0.00  0.00    -0.003 A 
ATOM     11  C   UNL     1      41.807  77.884  40.781  0.00  0.00    -0.003 A 
ATOM     12  C   UNL     1      42.143  76.994  41.785  0.00  0.00    -0.000 A 
ATOM     13  C   UNL     1      43.306  76.258  41.761  0.00  0.00    -0.000 A 
ATOM     14  C   UNL     1      44.135  76.462  40.656  0.00  0.00    -0.000 A 
ATOM     15  C   UNL     1      43.838  77.327  39.651  0.00  0.00    -0.003 A 
ENDBRANCH   8  10
ENDBRANCH   7   8
ENDBRANCH   4   5
ENDBRANCH   3   4
ENDBRANCH   2   3
ENDBRANCH   1   2
BRANCH   1  16
ATOM     16  C   UNL     1      48.339  82.484  42.094  0.00  0.00    +0.000 C 
BRANCH  16  17
ATOM     17  C   UNL     1      49.502  81.729  42.586  0.00  0.00    +0.005 C 
BRANCH  17  18
ATOM     18  C   UNL     1      50.815  82.319  42.826  0.00  0.00    +0.026 C 
BRANCH  18  20
ATOM     19  C   UNL     1      51.517  82.681  45.109  0.00  0.00    -0.026 C 
ATOM     20  C   UNL     1      51.020  83.173  43.982  0.00  0.00    -0.030 C 
BRANCH  19  21
ATOM     21  C   UNL     1      51.829  83.592  46.229  0.00  0.00    +0.051 C 
BRANCH  21  23
ATOM     22  C   UNL     1      53.174  82.902  48.169  0.00  0.00    -0.030 C 
ATOM     23  C   UNL     1      52.084  82.742  47.447  0.00  0.00    -0.026 C 
BRANCH  22  24
ATOM     24  C   UNL     1      53.419  82.113  49.381  0.00  0.00    +0.026 C 
BRANCH  24  25
ATOM     25  C   UNL     1      54.816  81.547  49.356  0.00  0.00    +0.005 C 
BRANCH  25  26
ATOM     26  C   UNL     1      55.739  82.328  50.284  0.00  0.00    +0.000 C 
BRANCH  26  28
ATOM     27  C   UNL     1      58.087  82.609  51.067  0.00  0.00    +0.000 C 
ATOM     28  C   UNL     1      57.134  81.767  50.276  0.00  0.00    +0.000 C 
ENDBRANCH  26  28
ENDBRANCH  25  26
ENDBRANCH  24  25
ENDBRANCH  22  24
ENDBRANCH  21  23
ENDBRANCH  19  21
ENDBRANCH  18  20
ENDBRANCH  17  18
ENDBRANCH  16  17
ENDBRANCH   1  16
TORSDOF 16
