REMARK  Name = Meloxicam
REMARK  1 active torsions:
REMARK  status: ('A' for Active; 'I' for Inactive)
REMARK    1  A    between atoms: C_8  and  C_10
REMARK                            x       y       z     vdW  Elec       q    Type
REMARK                         _______ _______ _______ _____ _____    ______ ____
ROOT
ATOM      1  C   UNL     1      43.233  78.117  39.569  0.00  0.00    +0.163 C 
ATOM      2  C   UNL     1      42.328  78.119  38.612  0.00  0.00    +0.216 C 
ATOM      3  C   UNL     1      41.316  77.089  38.393  0.00  0.00    +0.059 A 
ATOM      4  C   UNL     1      40.357  77.282  37.374  0.00  0.00    +0.005 A 
ATOM      5  C   UNL     1      39.336  76.390  37.157  0.00  0.00    +0.000 A 
ATOM      6  C   UNL     1      39.233  75.272  37.947  0.00  0.00    +0.001 A 
ATOM      7  C   UNL     1      40.186  75.095  38.946  0.00  0.00    +0.020 A 
ATOM      8  C   UNL     1      41.191  75.965  39.164  0.00  0.00    +0.129 A 
ATOM      9  S   UNL     1      42.379  75.614  40.371  0.00  0.00    +0.077 S 
ATOM     10  O   UNL     1      43.327  74.582  39.794  0.00  0.00    -0.150 OA
ATOM     11  O   UNL     1      41.776  75.150  41.662  0.00  0.00    -0.150 OA
ATOM     12  N   UNL     1      43.243  77.111  40.597  0.00  0.00    -0.181 N 
ATOM     13  C   UNL     1      43.943  77.370  41.819  0.00  0.00    +0.139 C 
ATOM     14  O   UNL     1      42.277  79.184  37.682  0.00  0.00    -0.285 OA
ENDROOT
BRANCH   1  22
ATOM     15  C   UNL     1      48.533  83.540  40.430  0.00  0.00    +0.040 C 
ATOM     16  C   UNL     1      47.396  82.767  39.810  0.00  0.00    +0.029 A 
ATOM     17  C   UNL     1      46.751  83.031  38.629  0.00  0.00    +0.103 A 
ATOM     18  N   UNL     1      45.794  82.237  38.276  0.00  0.00    -0.221 NA
ATOM     19  C   UNL     1      45.471  81.212  39.050  0.00  0.00    +0.186 A 
ATOM     20  S   UNL     1      46.568  81.365  40.346  0.00  0.00    -0.054 S 
ATOM     21  N   UNL     1      44.423  80.221  38.806  0.00  0.00    -0.149 NA
ATOM     22  C   UNL     1      44.216  79.166  39.722  0.00  0.00    +0.289 C 
ATOM     23  O   UNL     1      44.988  79.195  40.740  0.00  0.00    -0.266 OA
ENDBRANCH   1  22
TORSDOF 1
