REMARK  Name = Melphalan
REMARK  8 active torsions:
REMARK  status: ('A' for Active; 'I' for Inactive)
REMARK    1  A    between atoms: C_3  and  N_13
REMARK    2  A    between atoms: C_6  and  C_7
REMARK    3  A    between atoms: C_7  and  CA_8
REMARK    4  A    between atoms: CA_8  and  C_9
REMARK    5  A    between atoms: N_13  and  C_14
REMARK    6  A    between atoms: N_13  and  C_17
REMARK    7  A    between atoms: C_14  and  C_15
REMARK    8  A    between atoms: C_17  and  C_18
REMARK                            x       y       z     vdW  Elec       q    Type
REMARK                         _______ _______ _______ _____ _____    ______ ____
ROOT
ATOM      1  C   UNL     1      46.136  79.616  41.694  0.00  0.00    -0.003 A 
ATOM      2  C   UNL     1      47.282  80.294  42.130  0.00  0.00    +0.014 A 
ATOM      3  C   UNL     1      47.554  81.580  41.717  0.00  0.00    +0.048 A 
ATOM      4  C   UNL     1      46.640  82.147  40.863  0.00  0.00    +0.014 A 
ATOM      5  C   UNL     1      45.520  81.494  40.434  0.00  0.00    -0.003 A 
ATOM      6  C   UNL     1      45.242  80.203  40.842  0.00  0.00    -0.020 A 
ENDROOT
BRANCH   6   7
ATOM      7  C   UNL     1      44.045  79.546  40.315  0.00  0.00    +0.057 C 
BRANCH   7   8
ATOM      8  CA  UNL     1      44.206  79.117  38.880  0.00  0.00    +0.199 C 
ATOM      9  N   UNL     1      45.305  78.235  38.696  0.00  0.00    -0.120 NA
BRANCH   8  10
ATOM     10  C   UNL     1      42.933  78.547  38.403  0.00  0.00    +0.382 C 
ATOM     11  O   UNL     1      41.997  79.335  38.113  0.00  0.00    -0.244 OA
ATOM     12  OXT UNL     1      42.736  77.183  38.261  0.00  0.00    -0.244 OA
ENDBRANCH   8  10
ENDBRANCH   7   8
ENDBRANCH   6   7
BRANCH   3  13
ATOM     13  N   UNL     1      48.749  82.266  42.114  0.00  0.00    -0.305 N 
BRANCH  13  14
ATOM     14  C   UNL     1      48.701  83.210  43.173  0.00  0.00    +0.108 C 
BRANCH  14  15
ATOM     15  C   UNL     1      48.127  84.512  42.586  0.00  0.00    +0.116 C 
ATOM     16 CL   UNL     1      47.898  85.748  43.842  0.00  0.00    -0.112 Cl
ENDBRANCH  14  15
ENDBRANCH  13  14
BRANCH  13  17
ATOM     17  C   UNL     1      49.965  81.943  41.429  0.00  0.00    +0.108 C 
BRANCH  17  18
ATOM     18  C   UNL     1      51.154  81.611  42.266  0.00  0.00    +0.116 C 
ATOM     19 CL   UNL     1      52.428  82.787  42.109  0.00  0.00    -0.112 Cl
ENDBRANCH  17  18
ENDBRANCH  13  17
ENDBRANCH   3  13
TORSDOF 8
