REMARK  Name = Mepartricin
REMARK  12 active torsions:
REMARK  status: ('A' for Active; 'I' for Inactive)
REMARK    1  A    between atoms: C_18  and  O_71
REMARK    2  A    between atoms: C_20  and  C_67
REMARK    3  A    between atoms: C_42  and  C_43
REMARK    4  A    between atoms: C_43  and  C_45
REMARK    5  A    between atoms: C_45  and  C_46
REMARK    6  A    between atoms: C_46  and  C_47
REMARK    7  A    between atoms: C_47  and  C_48
REMARK    8  A    between atoms: C_48  and  C_49
REMARK    9  A    between atoms: C_49  and  C_51
REMARK   10  A    between atoms: C_54  and  N_57
REMARK   11  A    between atoms: C_67  and  O_69
REMARK   12  A    between atoms: O_71  and  C_72
REMARK                            x       y       z     vdW  Elec       q    Type
REMARK                         _______ _______ _______ _____ _____    ______ ____
ROOT
ATOM      1  C   UNL     1      55.988  72.691  45.782  0.00  0.00    +0.008 C 
ATOM      2  C   UNL     1      54.480  72.852  46.032  0.00  0.00    +0.062 C 
ATOM      3  C   UNL     1      54.218  74.077  46.781  0.00  0.00    -0.023 C 
ATOM      4  C   UNL     1      53.098  74.681  47.082  0.00  0.00    -0.004 C 
ATOM      5  C   UNL     1      51.748  74.284  46.741  0.00  0.00    -0.000 C 
ATOM      6  C   UNL     1      51.206  74.194  45.542  0.00  0.00    -0.000 C 
ATOM      7  C   UNL     1      51.806  74.470  44.270  0.00  0.00    -0.000 C 
ATOM      8  C   UNL     1      52.235  75.658  43.831  0.00  0.00    -0.000 C 
ATOM      9  C   UNL     1      52.157  76.893  44.592  0.00  0.00    +0.000 C 
ATOM     10  C   UNL     1      51.053  77.339  45.199  0.00  0.00    +0.000 C 
ATOM     11  C   UNL     1      49.770  76.690  45.206  0.00  0.00    -0.000 C 
ATOM     12  C   UNL     1      49.072  76.290  44.147  0.00  0.00    -0.000 C 
ATOM     13  C   UNL     1      49.494  76.443  42.759  0.00  0.00    -0.000 C 
ATOM     14  C   UNL     1      49.681  77.608  42.141  0.00  0.00    -0.000 C 
ATOM     15  C   UNL     1      49.501  78.918  42.722  0.00  0.00    -0.004 C 
ATOM     16  C   UNL     1      48.366  79.483  43.077  0.00  0.00    -0.024 C 
ATOM     17  C   UNL     1      47.018  78.867  42.939  0.00  0.00    +0.058 C 
ATOM     18  C   UNL     1      46.318  79.397  41.685  0.00  0.00    +0.150 C 
ATOM     19  C   UNL     1      45.548  78.243  41.069  0.00  0.00    +0.158 C 
ATOM     20  C   UNL     1      44.071  78.514  41.065  0.00  0.00    +0.159 C 
ATOM     21  C   UNL     1      43.320  77.320  40.560  0.00  0.00    +0.170 C 
ATOM     22  C   UNL     1      43.810  76.015  41.077  0.00  0.00    +0.093 C 
ATOM     23  C   UNL     1      44.859  76.281  42.135  0.00  0.00    +0.224 C 
ATOM     24  O   UNL     1      45.867  77.056  41.652  0.00  0.00    -0.331 OA
ATOM     25  C   UNL     1      45.318  74.945  42.687  0.00  0.00    +0.092 C 
ATOM     26  C   UNL     1      45.840  74.007  41.647  0.00  0.00    +0.160 C 
ATOM     27  C   UNL     1      46.505  72.823  42.313  0.00  0.00    +0.066 C 
ATOM     28  C   UNL     1      45.708  71.574  42.094  0.00  0.00    +0.157 C 
ATOM     29  C   UNL     1      45.894  70.525  43.161  0.00  0.00    +0.066 C 
ATOM     30  C   UNL     1      47.312  70.005  43.256  0.00  0.00    +0.157 C 
ATOM     31  C   UNL     1      47.907  70.510  44.538  0.00  0.00    +0.066 C 
ATOM     32  C   UNL     1      47.933  69.341  45.529  0.00  0.00    +0.162 C 
ATOM     33  C   UNL     1      49.206  69.358  46.334  0.00  0.00    +0.097 C 
ATOM     34  C   UNL     1      48.887  69.319  47.765  0.00  0.00    +0.156 C 
ATOM     35  O   UNL     1      48.386  68.341  48.252  0.00  0.00    -0.296 OA
ATOM     36  C   UNL     1      49.187  70.497  48.620  0.00  0.00    +0.098 C 
ATOM     37  C   UNL     1      50.612  70.357  49.140  0.00  0.00    +0.170 C 
ATOM     38  C   UNL     1      51.498  70.954  48.069  0.00  0.00    +0.143 C 
ATOM     39  C   UNL     1      52.663  71.627  48.664  0.00  0.00    +0.320 C 
ATOM     40  O   UNL     1      52.571  72.205  49.752  0.00  0.00    -0.250 OA
ATOM     41  O   UNL     1      53.916  71.627  48.001  0.00  0.00    -0.452 OA
ATOM     42  C   UNL     1      53.933  71.583  46.618  0.00  0.00    +0.173 C 
ATOM     43  O   UNL     1      50.927  69.048  49.434  0.00  0.00    -0.222 OA
ATOM     44  O   UNL     1      46.856  69.405  46.391  0.00  0.00    -0.223 OA
ATOM     45  O   UNL     1      48.070  70.360  42.143  0.00  0.00    -0.223 OA
ATOM     46  O   UNL     1      44.348  71.931  42.128  0.00  0.00    -0.223 OA
ATOM     47  O   UNL     1      46.717  74.659  40.767  0.00  0.00    -0.223 OA
ATOM     48  O   UNL     1      44.199  76.914  43.214  0.00  0.00    -0.195 OA
ATOM     49  O   UNL     1      41.938  77.444  40.785  0.00  0.00    -0.222 OA
ENDROOT
BRANCH  42  50
ATOM     50  C   UNL     1      54.624  70.379  46.078  0.00  0.00    +0.041 C 
ATOM     51  C   UNL     1      54.592  70.322  44.554  0.00  0.00    +0.004 C 
BRANCH  50  52
ATOM     52  C   UNL     1      54.348  69.063  46.693  0.00  0.00    +0.006 C 
BRANCH  52  53
ATOM     53  C   UNL     1      54.386  67.871  45.780  0.00  0.00    +0.033 C 
BRANCH  53  54
ATOM     54  C   UNL     1      55.487  66.926  46.178  0.00  0.00    +0.160 C 
ATOM     55  O   UNL     1      56.751  67.480  45.907  0.00  0.00    -0.223 OA
BRANCH  54  56
ATOM     56  C   UNL     1      55.421  65.672  45.292  0.00  0.00    +0.102 C 
BRANCH  56  57
ATOM     57  C   UNL     1      56.625  64.851  45.545  0.00  0.00    +0.176 C 
ATOM     58  O   UNL     1      57.582  65.352  46.185  0.00  0.00    -0.291 OA
BRANCH  57  59
ATOM     59  C   UNL     1      56.715  63.496  45.069  0.00  0.00    +0.035 A 
ATOM     60  C   UNL     1      57.012  62.482  45.957  0.00  0.00    +0.004 A 
ATOM     61  C   UNL     1      57.091  61.176  45.476  0.00  0.00    +0.016 A 
ATOM     62  C   UNL     1      56.879  60.886  44.149  0.00  0.00    +0.065 A 
ATOM     63  C   UNL     1      56.585  61.916  43.287  0.00  0.00    +0.016 A 
ATOM     64  C   UNL     1      56.498  63.212  43.713  0.00  0.00    +0.004 A 
BRANCH  62  65
ATOM     65  N   UNL     1      56.971  59.551  43.703  0.00  0.00    -0.236 NA
ATOM     66  C   UNL     1      56.688  59.189  42.327  0.00  0.00    +0.135 C 
ENDBRANCH  62  65
ENDBRANCH  57  59
ENDBRANCH  56  57
ENDBRANCH  54  56
ENDBRANCH  53  54
ENDBRANCH  52  53
ENDBRANCH  50  52
ENDBRANCH  42  50
BRANCH  20  67
ATOM     67  C   UNL     1      43.708  79.631  40.143  0.00  0.00    +0.322 C 
ATOM     68  O   UNL     1      42.612  80.240  40.216  0.00  0.00    -0.250 OA
BRANCH  67  69
ATOM     69  O   UNL     1      44.577  80.058  39.143  0.00  0.00    -0.444 OA
ATOM     70  C   UNL     1      44.964  79.210  38.049  0.00  0.00    +0.256 C 
ENDBRANCH  67  69
ENDBRANCH  20  67
BRANCH  18  71
ATOM     71  O   UNL     1      47.335  79.830  40.862  0.00  0.00    -0.328 OA
BRANCH  71  72
ATOM     72  C   UNL     1      47.779  81.093  41.125  0.00  0.00    +0.268 C 
ATOM     73  C   UNL     1      48.887  81.600  40.246  0.00  0.00    +0.228 C 
ATOM     74  C   UNL     1      49.188  83.026  40.679  0.00  0.00    +0.160 C 
ATOM     75  C   UNL     1      48.181  83.555  41.673  0.00  0.00    +0.199 C 
ATOM     76  C   UNL     1      47.904  82.601  42.808  0.00  0.00    +0.150 C 
ATOM     77  O   UNL     1      48.195  81.281  42.454  0.00  0.00    -0.328 OA
ATOM     78  C   UNL     1      46.433  82.783  43.155  0.00  0.00    +0.035 C 
ATOM     79  O   UNL     1      48.691  84.733  42.207  0.00  0.00    -0.219 OA
ATOM     80  N   UNL     1      49.081  83.898  39.497  0.00  0.00    -0.127 NA
ATOM     81  O   UNL     1      50.067  80.872  40.419  0.00  0.00    -0.216 OA
ENDBRANCH  71  72
ENDBRANCH  18  71
TORSDOF 12
