REMARK  Name = Mepindolol
REMARK  6 active torsions:
REMARK  status: ('A' for Active; 'I' for Inactive)
REMARK    1  A    between atoms: C_10  and  O_11
REMARK    2  A    between atoms: O_11  and  C_12
REMARK    3  A    between atoms: C_12  and  C_13
REMARK    4  A    between atoms: C_13  and  C_14
REMARK    5  A    between atoms: C_14  and  N_15
REMARK    6  A    between atoms: N_15  and  C_16
REMARK                            x       y       z     vdW  Elec       q    Type
REMARK                         _______ _______ _______ _____ _____    ______ ____
ROOT
ATOM      1  C   UNL     1      43.906  75.619  42.997  0.00  0.00    +0.052 C 
ATOM      2  C   UNL     1      43.462  76.338  41.775  0.00  0.00    +0.059 A 
ATOM      3  C   UNL     1      43.927  77.561  41.357  0.00  0.00    +0.019 A 
ATOM      4  C   UNL     1      43.265  77.872  40.190  0.00  0.00    +0.053 A 
ATOM      5  C   UNL     1      42.410  76.813  39.938  0.00  0.00    +0.084 A 
ATOM      6  N   UNL     1      42.549  75.899  40.913  0.00  0.00    -0.250 NA
ATOM      7  C   UNL     1      41.594  76.821  38.825  0.00  0.00    +0.019 A 
ATOM      8  C   UNL     1      41.645  77.894  37.973  0.00  0.00    +0.005 A 
ATOM      9  C   UNL     1      42.510  78.958  38.234  0.00  0.00    +0.037 A 
ATOM     10  C   UNL     1      43.327  78.962  39.338  0.00  0.00    +0.140 A 
ENDROOT
BRANCH  10  11
ATOM     11  O   UNL     1      44.162  80.006  39.576  0.00  0.00    -0.473 OA
BRANCH  11  12
ATOM     12  C   UNL     1      45.075  80.541  38.637  0.00  0.00    +0.240 C 
BRANCH  12  13
ATOM     13  C   UNL     1      45.547  81.854  39.185  0.00  0.00    +0.213 C 
ATOM     14  O   UNL     1      46.283  82.480  38.157  0.00  0.00    -0.218 OA
BRANCH  13  15
ATOM     15  C   UNL     1      46.441  81.764  40.372  0.00  0.00    +0.125 C 
BRANCH  15  16
ATOM     16  N   UNL     1      47.811  82.069  40.134  0.00  0.00    -0.217 NA
BRANCH  16  17
ATOM     17  C   UNL     1      48.661  81.961  41.285  0.00  0.00    +0.073 C 
ATOM     18  C   UNL     1      50.078  81.775  40.789  0.00  0.00    +0.019 C 
ATOM     19  C   UNL     1      48.606  83.108  42.226  0.00  0.00    +0.019 C 
ENDBRANCH  16  17
ENDBRANCH  15  16
ENDBRANCH  13  15
ENDBRANCH  12  13
ENDBRANCH  11  12
ENDBRANCH  10  11
TORSDOF 6
