REMARK  Name = Meprednisone
REMARK  2 active torsions:
REMARK  status: ('A' for Active; 'I' for Inactive)
REMARK    1  A    between atoms: C_20  and  C_21
REMARK    2  A    between atoms: C_21  and  C_23
REMARK                            x       y       z     vdW  Elec       q    Type
REMARK                         _______ _______ _______ _____ _____    ______ ____
ROOT
ATOM      1  C   UNL     1      52.079  81.599  41.833  0.00  0.00    +0.003 C 
ATOM      2  C   UNL     1      51.173  82.797  41.874  0.00  0.00    +0.035 C 
ATOM      3  C   UNL     1      50.205  82.869  40.742  0.00  0.00    +0.003 C 
ATOM      4  C   UNL     1      48.809  82.735  41.315  0.00  0.00    +0.004 C 
ATOM      5  C   UNL     1      48.064  81.779  40.385  0.00  0.00    +0.008 C 
ATOM      6  C   UNL     1      47.468  82.651  39.297  0.00  0.00    +0.005 C 
ATOM      7  C   UNL     1      46.837  81.767  38.249  0.00  0.00    +0.022 C 
ATOM      8  C   UNL     1      45.822  80.921  38.990  0.00  0.00    -0.038 C 
ATOM      9  C   UNL     1      44.587  81.046  38.573  0.00  0.00    +0.034 C 
ATOM     10  C   UNL     1      43.548  80.267  39.227  0.00  0.00    +0.195 C 
ATOM     11  O   UNL     1      42.374  80.375  38.844  0.00  0.00    -0.287 OA
ATOM     12  C   UNL     1      43.990  79.406  40.305  0.00  0.00    +0.038 C 
ATOM     13  C   UNL     1      45.236  79.307  40.697  0.00  0.00    -0.019 C 
ATOM     14  C   UNL     1      46.319  80.066  40.082  0.00  0.00    +0.040 C 
ATOM     15  C   UNL     1      47.043  80.945  41.077  0.00  0.00    +0.065 C 
ATOM     16  C   UNL     1      47.708  80.233  42.169  0.00  0.00    +0.151 C 
ATOM     17  O   UNL     1      47.212  79.284  42.728  0.00  0.00    -0.296 OA
ATOM     18  C   UNL     1      49.052  80.697  42.611  0.00  0.00    +0.067 C 
ATOM     19  C   UNL     1      49.031  82.210  42.683  0.00  0.00    +0.039 C 
ATOM     20  C   UNL     1      50.350  82.752  43.126  0.00  0.00    +0.180 C 
ATOM     21  O   UNL     1      50.972  81.933  44.068  0.00  0.00    -0.218 OA
ATOM     22  C   UNL     1      47.941  82.581  43.663  0.00  0.00    +0.003 C 
ATOM     23  C   UNL     1      47.253  79.053  39.444  0.00  0.00    +0.009 C 
ENDROOT
BRANCH  20  24
ATOM     24  C   UNL     1      50.245  84.135  43.650  0.00  0.00    +0.211 C 
ATOM     25  O   UNL     1      49.949  85.073  42.930  0.00  0.00    -0.291 OA
BRANCH  24  26
ATOM     26  C   UNL     1      50.501  84.404  45.077  0.00  0.00    +0.248 C 
ATOM     27  O   UNL     1      50.670  85.763  45.334  0.00  0.00    -0.212 OA
ENDBRANCH  24  26
ENDBRANCH  20  24
TORSDOF 2
