REMARK  Name = MEPTAZINOL
REMARK  2 active torsions:
REMARK  status: ('A' for Active; 'I' for Inactive)
REMARK    1  A    between atoms: C_2  and  C_3
REMARK    2  A    between atoms: C_3  and  C_11
REMARK                            x       y       z     vdW  Elec       q    Type
REMARK                         _______ _______ _______ _____ _____    ______ ____
ROOT
ATOM      1  C   UNL     1      49.014  83.351  42.033  0.00  0.00    +0.034 C 
ATOM      2  C   UNL     1      50.204  83.860  41.322  0.00  0.00    +0.005 C 
ATOM      3  C   UNL     1      51.482  83.952  42.064  0.00  0.00    +0.002 C 
ATOM      4  C   UNL     1      51.854  82.850  42.969  0.00  0.00    +0.017 C 
ATOM      5  C   UNL     1      51.448  81.478  42.524  0.00  0.00    +0.072 C 
ATOM      6  N   UNL     1      50.055  81.218  42.577  0.00  0.00    -0.271 NA
ATOM      7  C   UNL     1      49.234  82.280  43.043  0.00  0.00    +0.076 C 
ATOM      8  C   UNL     1      49.705  80.006  43.291  0.00  0.00    +0.090 C 
ENDROOT
BRANCH   1   9
ATOM      9  C   UNL     1      48.100  82.778  40.977  0.00  0.00    -0.018 A 
ATOM     10  C   UNL     1      47.300  81.697  41.330  0.00  0.00    +0.038 A 
ATOM     11  C   UNL     1      46.453  81.170  40.369  0.00  0.00    +0.195 A 
ATOM     12  C   UNL     1      46.406  81.702  39.102  0.00  0.00    +0.042 A 
ATOM     13  C   UNL     1      47.214  82.772  38.789  0.00  0.00    +0.003 A 
ATOM     14  C   UNL     1      48.086  83.341  39.724  0.00  0.00    -0.004 A 
ATOM     15  O   UNL     1      45.646  80.095  40.694  0.00  0.00    -0.287 OA
ENDBRANCH   1   9
BRANCH   1  17
ATOM     16  C   UNL     1      47.309  84.109  43.738  0.00  0.00    +0.000 C 
ATOM     17  C   UNL     1      48.307  84.517  42.707  0.00  0.00    +0.005 C 
ENDBRANCH   1  17
TORSDOF 2
