REMARK  Name = Mepyramine
REMARK  7 active torsions:
REMARK  status: ('A' for Active; 'I' for Inactive)
REMARK    1  A    between atoms: N_2  and  C_4
REMARK    2  A    between atoms: C_4  and  C_5
REMARK    3  A    between atoms: C_5  and  N_6
REMARK    4  A    between atoms: N_6  and  C_7
REMARK    5  A    between atoms: N_6  and  C_16
REMARK    6  A    between atoms: C_7  and  C_8
REMARK    7  A    between atoms: C_11  and  O_14
REMARK                            x       y       z     vdW  Elec       q    Type
REMARK                         _______ _______ _______ _____ _____    ______ ____
ROOT
ATOM      1  N   UNL     1      45.106  79.735  39.882  0.00  0.00    -0.288 N 
ENDROOT
BRANCH   1   2
ATOM      2  C   UNL     1      45.243  78.731  40.867  0.00  0.00    +0.132 A 
ATOM      3  C   UNL     1      44.475  78.811  42.003  0.00  0.00    +0.034 A 
ATOM      4  C   UNL     1      44.568  77.857  42.992  0.00  0.00    +0.004 A 
ATOM      5  C   UNL     1      45.443  76.804  42.844  0.00  0.00    +0.021 A 
ATOM      6  C   UNL     1      46.206  76.749  41.687  0.00  0.00    +0.100 A 
ATOM      7  N   UNL     1      46.090  77.707  40.731  0.00  0.00    -0.229 NA
ENDBRANCH   1   2
BRANCH   1   8
ATOM      8  C   UNL     1      43.777  80.036  39.400  0.00  0.00    +0.110 C 
BRANCH   8   9
ATOM      9  C   UNL     1      43.275  79.070  38.364  0.00  0.00    +0.094 C 
BRANCH   9  11
ATOM     10  C   UNL     1      41.829  78.907  36.539  0.00  0.00    +0.090 C 
ATOM     11  N   UNL     1      41.918  79.322  37.949  0.00  0.00    -0.269 NA
ATOM     12  C   UNL     1      41.068  78.381  38.662  0.00  0.00    +0.090 C 
ENDBRANCH   9  11
ENDBRANCH   8   9
ENDBRANCH   1   8
BRANCH   1  13
ATOM     13  C   UNL     1      46.289  80.388  39.423  0.00  0.00    +0.119 C 
BRANCH  13  14
ATOM     14  C   UNL     1      46.899  81.299  40.393  0.00  0.00    -0.002 A 
ATOM     15  C   UNL     1      47.941  80.940  41.211  0.00  0.00    +0.000 A 
ATOM     16  C   UNL     1      48.459  81.865  42.095  0.00  0.00    +0.037 A 
ATOM     17  C   UNL     1      47.965  83.164  42.197  0.00  0.00    +0.139 A 
ATOM     18  C   UNL     1      46.920  83.508  41.370  0.00  0.00    +0.037 A 
ATOM     19  C   UNL     1      46.399  82.581  40.482  0.00  0.00    +0.000 A 
BRANCH  17  20
ATOM     20  O   UNL     1      48.512  84.068  43.100  0.00  0.00    -0.471 OA
ATOM     21  C   UNL     1      49.849  84.154  43.460  0.00  0.00    +0.252 C 
ENDBRANCH  17  20
ENDBRANCH  13  14
ENDBRANCH   1  13
TORSDOF 7
