REMARK  Name = Mercaptopurine
REMARK  0 active torsions:
REMARK  status: ('A' for Active; 'I' for Inactive)
REMARK                            x       y       z     vdW  Elec       q    Type
REMARK                         _______ _______ _______ _____ _____    ______ ____
ROOT
ATOM      1  C   UNL     1      47.518  83.022  39.599  0.00  0.00    +0.200 A 
ATOM      2  N   UNL     1      46.578  82.971  38.638  0.00  0.00    -0.203 NA
ATOM      3  C   UNL     1      45.836  81.865  38.830  0.00  0.00    +0.185 A 
ATOM      4  C   UNL     1      46.370  81.254  39.948  0.00  0.00    +0.143 A 
ATOM      5  N   UNL     1      47.412  81.971  40.424  0.00  0.00    -0.219 NA
ATOM      6  C   UNL     1      45.791  80.061  40.393  0.00  0.00    +0.139 A 
ATOM      7  S   UNL     1      46.414  79.335  41.709  0.00  0.00    -0.028 S 
ATOM      8  N   UNL     1      44.746  79.560  39.720  0.00  0.00    -0.215 NA
ATOM      9  C   UNL     1      44.217  80.149  38.627  0.00  0.00    +0.201 A 
ATOM     10  N   UNL     1      44.785  81.296  38.212  0.00  0.00    -0.203 NA
ENDROOT
TORSDOF 0
