REMARK  Name = Merimepodib
REMARK  8 active torsions:
REMARK  status: ('A' for Active; 'I' for Inactive)
REMARK    1  A    between atoms: O_2  and  C_3
REMARK    2  A    between atoms: C_4  and  C_29
REMARK    3  A    between atoms: C_7  and  N_9
REMARK    4  A    between atoms: N_12  and  C_13
REMARK    5  A    between atoms: C_17  and  C_19
REMARK    6  A    between atoms: C_19  and  N_20
REMARK    7  A    between atoms: C_21  and  O_23
REMARK    8  A    between atoms: O_23  and  C_24
REMARK                            x       y       z     vdW  Elec       q    Type
REMARK                         _______ _______ _______ _____ _____    ______ ____
ROOT
ATOM      1  N   UNL     1      46.353  81.123  39.241  0.00  0.00    -0.161 NA
ATOM      2  C   UNL     1      45.257  80.547  39.937  0.00  0.00    +0.348 C 
ATOM      3  O   UNL     1      45.382  80.141  41.133  0.00  0.00    -0.248 OA
ATOM      4  N   UNL     1      43.961  80.383  39.368  0.00  0.00    -0.161 NA
ENDROOT
BRANCH   1   9
ATOM      5  C   UNL     1      48.252  82.981  41.871  0.00  0.00    +0.143 A 
ATOM      6  C   UNL     1      49.536  82.877  41.386  0.00  0.00    +0.070 A 
ATOM      7  C   UNL     1      49.748  82.191  40.192  0.00  0.00    +0.007 A 
ATOM      8  C   UNL     1      48.679  81.637  39.531  0.00  0.00    +0.017 A 
ATOM      9  C   UNL     1      47.386  81.725  39.993  0.00  0.00    +0.078 A 
ATOM     10  C   UNL     1      47.203  82.406  41.169  0.00  0.00    +0.054 A 
BRANCH   6  11
ATOM     11  C   UNL     1      50.705  83.443  42.044  0.00  0.00    +0.169 A 
ATOM     12  C   UNL     1      50.732  84.298  43.111  0.00  0.00    +0.140 A 
ATOM     13  N   UNL     1      52.045  84.564  43.391  0.00  0.00    -0.203 NA
ATOM     14  C   UNL     1      52.764  83.875  42.499  0.00  0.00    +0.285 A 
ATOM     15  O   UNL     1      51.937  83.227  41.723  0.00  0.00    -0.431 OA
ENDBRANCH   6  11
BRANCH   5  17
ATOM     16  C   UNL     1      47.178  84.773  43.158  0.00  0.00    +0.252 C 
ATOM     17  O   UNL     1      48.025  83.665  43.064  0.00  0.00    -0.471 OA
ENDBRANCH   5  17
ENDBRANCH   1   9
BRANCH   4  18
ATOM     18  C   UNL     1      43.304  79.124  39.334  0.00  0.00    +0.075 A 
ATOM     19  C   UNL     1      43.590  78.134  40.243  0.00  0.00    +0.017 A 
ATOM     20  C   UNL     1      42.937  76.932  40.166  0.00  0.00    +0.001 A 
ATOM     21  C   UNL     1      41.978  76.681  39.178  0.00  0.00    -0.002 A 
ATOM     22  C   UNL     1      41.687  77.665  38.266  0.00  0.00    +0.001 A 
ATOM     23  C   UNL     1      42.357  78.874  38.360  0.00  0.00    +0.014 A 
BRANCH  22  24
ATOM     24  C   UNL     1      40.684  77.446  37.203  0.00  0.00    +0.145 C 
BRANCH  24  25
ATOM     25  N   UNL     1      40.110  76.144  37.159  0.00  0.00    -0.164 NA
ATOM     26  C   UNL     1      39.197  75.746  36.151  0.00  0.00    +0.421 C 
ATOM     27  O   UNL     1      38.319  76.497  35.684  0.00  0.00    -0.225 OA
BRANCH  26  28
ATOM     28  O   UNL     1      39.231  74.452  35.609  0.00  0.00    -0.435 OA
BRANCH  28  29
ATOM     29  C   UNL     1      38.321  74.061  34.628  0.00  0.00    +0.202 C 
ATOM     30  C   UNL     1      38.983  73.959  33.267  0.00  0.00    +0.078 C 
ATOM     31  C   UNL     1      38.392  72.685  32.707  0.00  0.00    +0.146 C 
ATOM     32  O   UNL     1      37.273  72.443  33.501  0.00  0.00    -0.350 OA
ATOM     33  C   UNL     1      37.821  72.634  34.791  0.00  0.00    +0.186 C 
ENDBRANCH  28  29
ENDBRANCH  26  28
ENDBRANCH  24  25
ENDBRANCH  22  24
ENDBRANCH   4  18
TORSDOF 8
