REMARK  Name = Meropenem
REMARK  5 active torsions:
REMARK  status: ('A' for Active; 'I' for Inactive)
REMARK    1  A    between atoms: C_4  and  C_24
REMARK    2  A    between atoms: C_8  and  C_21
REMARK    3  A    between atoms: C_9  and  S_10
REMARK    4  A    between atoms: S_10  and  C_11
REMARK    5  A    between atoms: C_13  and  C_16
REMARK                            x       y       z     vdW  Elec       q    Type
REMARK                         _______ _______ _______ _____ _____    ______ ____
ROOT
ATOM      1  C   UNL     1      46.656  78.022  41.362  0.00  0.00    +0.007 C 
ATOM      2  C   UNL     1      45.636  79.097  41.364  0.00  0.00    +0.049 C 
ATOM      3  C   UNL     1      44.263  78.602  40.994  0.00  0.00    +0.096 C 
ATOM      4  C   UNL     1      44.127  77.339  40.227  0.00  0.00    +0.126 C 
ATOM      5  C   UNL     1      43.183  78.215  39.415  0.00  0.00    +0.233 C 
ATOM      6  O   UNL     1      42.099  78.117  38.816  0.00  0.00    -0.274 OA
ATOM      7  N   UNL     1      44.129  79.224  39.660  0.00  0.00    -0.254 N 
ATOM      8  C   UNL     1      44.991  80.327  39.562  0.00  0.00    +0.136 C 
ATOM      9  C   UNL     1      45.897  80.280  40.561  0.00  0.00    +0.024 C 
ENDROOT
BRANCH   8  10
ATOM     10  C   UNL     1      44.943  81.378  38.552  0.00  0.00    +0.401 C 
ATOM     11  O   UNL     1      45.826  82.291  38.611  0.00  0.00    -0.239 OA
ATOM     12  O   UNL     1      43.990  81.394  37.570  0.00  0.00    -0.239 OA
ENDBRANCH   8  10
BRANCH   4  13
ATOM     13  C   UNL     1      43.444  76.181  40.878  0.00  0.00    +0.162 C 
ATOM     14  C   UNL     1      42.228  75.815  40.050  0.00  0.00    +0.036 C 
ATOM     15  O   UNL     1      43.068  76.413  42.178  0.00  0.00    -0.223 OA
ENDBRANCH   4  13
BRANCH   9  16
ATOM     16  S   UNL     1      47.131  81.509  40.788  0.00  0.00    -0.116 S 
BRANCH  16  17
ATOM     17  C   UNL     1      48.341  81.178  42.057  0.00  0.00    +0.071 C 
ATOM     18  C   UNL     1      48.941  82.550  42.441  0.00  0.00    +0.039 C 
ATOM     19  C   UNL     1      50.267  82.084  43.058  0.00  0.00    +0.150 C 
ATOM     20  N   UNL     1      50.714  81.043  42.147  0.00  0.00    -0.209 NA
ATOM     21  C   UNL     1      49.563  80.463  41.541  0.00  0.00    +0.100 C 
BRANCH  19  22
ATOM     22  C   UNL     1      51.225  83.194  43.123  0.00  0.00    +0.242 C 
ATOM     23  O   UNL     1      52.376  83.074  42.588  0.00  0.00    -0.273 OA
ATOM     24  N   UNL     1      50.928  84.416  43.765  0.00  0.00    -0.275 N 
ATOM     25  C   UNL     1      51.980  85.268  44.264  0.00  0.00    +0.115 C 
ATOM     26  C   UNL     1      49.546  84.849  43.942  0.00  0.00    +0.115 C 
ENDBRANCH  19  22
ENDBRANCH  16  17
ENDBRANCH   9  16
TORSDOF 5
