REMARK  Name = Mesalazine
REMARK  1 active torsions:
REMARK  status: ('A' for Active; 'I' for Inactive)
REMARK    1  A    between atoms: C_4  and  C_8
REMARK                            x       y       z     vdW  Elec       q    Type
REMARK                         _______ _______ _______ _____ _____    ______ ____
ROOT
ATOM      1  C   UNL     1      47.920  82.518  40.642  0.00  0.00    +0.021 A 
ATOM      2  C   UNL     1      47.172  82.884  39.550  0.00  0.00    +0.044 A 
ATOM      3  C   UNL     1      46.145  82.080  39.091  0.00  0.00    +0.202 A 
ATOM      4  C   UNL     1      45.824  80.885  39.699  0.00  0.00    +0.120 A 
ATOM      5  C   UNL     1      46.599  80.534  40.808  0.00  0.00    +0.028 A 
ATOM      6  C   UNL     1      47.624  81.324  41.276  0.00  0.00    +0.090 A 
ATOM      7  N   UNL     1      48.373  80.890  42.424  0.00  0.00    -0.128 NA
ATOM      8  O   UNL     1      45.383  82.445  37.985  0.00  0.00    -0.286 OA
ENDROOT
BRANCH   4   9
ATOM      9  C   UNL     1      44.746  80.030  39.226  0.00  0.00    +0.391 C 
ATOM     10  O   UNL     1      44.483  78.942  39.784  0.00  0.00    -0.240 OA
ATOM     11  O   UNL     1      43.997  80.420  38.145  0.00  0.00    -0.240 OA
ENDBRANCH   4   9
TORSDOF 1
