REMARK  Name = Mestranol
REMARK  2 active torsions:
REMARK  status: ('A' for Active; 'I' for Inactive)
REMARK    1  A    between atoms: C_10  and  C_11
REMARK    2  A    between atoms: C_20  and  O_22
REMARK                            x       y       z     vdW  Elec       q    Type
REMARK                         _______ _______ _______ _____ _____    ______ ____
ROOT
ATOM      1  C   UNL     1      50.991  81.880  42.018  0.00  0.00    +0.003 C 
ATOM      2  C   UNL     1      49.550  82.276  41.703  0.00  0.00    +0.037 C 
ATOM      3  C   UNL     1      49.332  82.076  40.245  0.00  0.00    +0.004 C 
ATOM      4  C   UNL     1      47.898  82.229  39.815  0.00  0.00    +0.004 C 
ATOM      5  C   UNL     1      46.920  81.616  40.779  0.00  0.00    +0.022 C 
ATOM      6  C   UNL     1      47.674  80.722  41.718  0.00  0.00    +0.004 C 
ATOM      7  C   UNL     1      48.661  81.434  42.575  0.00  0.00    +0.004 C 
ATOM      8  C   UNL     1      48.032  82.329  43.599  0.00  0.00    +0.004 C 
ATOM      9  C   UNL     1      48.923  83.569  43.620  0.00  0.00    +0.043 C 
ATOM     10  C   UNL     1      49.388  83.705  42.163  0.00  0.00    +0.180 C 
ATOM     11  O   UNL     1      48.503  84.443  41.417  0.00  0.00    -0.212 OA
ATOM     12  C   UNL     1      46.698  79.870  42.496  0.00  0.00    +0.005 C 
ATOM     13  C   UNL     1      46.180  78.816  41.526  0.00  0.00    +0.026 C 
ATOM     14  C   UNL     1      45.482  79.576  40.427  0.00  0.00    -0.023 A 
ATOM     15  C   UNL     1      45.846  80.867  40.107  0.00  0.00    -0.026 A 
ATOM     16  C   UNL     1      45.157  81.510  39.081  0.00  0.00    -0.001 A 
ATOM     17  C   UNL     1      44.130  80.859  38.403  0.00  0.00    +0.037 A 
ATOM     18  C   UNL     1      43.760  79.590  38.706  0.00  0.00    +0.138 A 
ATOM     19  C   UNL     1      44.455  78.957  39.732  0.00  0.00    +0.032 A 
ENDROOT
BRANCH  10  20
ATOM     20  C   UNL     1      50.673  84.401  42.204  0.00  0.00    -0.049 C 
ATOM     21  C   UNL     1      51.728  84.978  42.258  0.00  0.00    -0.012 C 
ENDBRANCH  10  20
BRANCH  18  22
ATOM     22  O   UNL     1      42.757  78.866  38.090  0.00  0.00    -0.471 OA
ATOM     23  C   UNL     1      42.290  77.622  38.525  0.00  0.00    +0.252 C 
ENDBRANCH  18  22
TORSDOF 2
