REMARK  Name = Metadoxine
REMARK  3 active torsions:
REMARK  status: ('A' for Active; 'I' for Inactive)
REMARK    1  A    between atoms: C_5  and  C_11
REMARK    2  A    between atoms: C_6  and  C_9
REMARK    3  A    between atoms: CA_18  and  C_19
REMARK                            x       y       z     vdW  Elec       q    Type
REMARK                         _______ _______ _______ _____ _____    ______ ____
ROOT
ATOM      1  C   UNL     1      46.762  82.896  38.534  0.00  0.00    +0.056 C 
ATOM      2  C   UNL     1      45.972  81.696  38.960  0.00  0.00    +0.098 A 
ATOM      3  N   UNL     1      44.832  81.338  38.368  0.00  0.00    -0.245 NA
ATOM      4  C   UNL     1      44.143  80.244  38.785  0.00  0.00    +0.097 A 
ATOM      5  C   UNL     1      44.573  79.455  39.825  0.00  0.00    +0.031 A 
ATOM      6  C   UNL     1      45.771  79.826  40.450  0.00  0.00    +0.051 A 
ATOM      7  C   UNL     1      46.455  80.943  40.009  0.00  0.00    +0.207 A 
ATOM      8  O   UNL     1      47.661  81.340  40.619  0.00  0.00    -0.286 OA
ENDROOT
BRANCH   6   9
ATOM      9  C   UNL     1      46.302  79.038  41.567  0.00  0.00    +0.212 C 
ATOM     10  O   UNL     1      47.478  79.545  42.110  0.00  0.00    -0.215 OA
ENDBRANCH   6   9
BRANCH   5  11
ATOM     11  C   UNL     1      43.843  78.254  40.308  0.00  0.00    +0.210 C 
ATOM     12  O   UNL     1      42.664  78.050  39.572  0.00  0.00    -0.215 OA
ENDBRANCH   5  11
TORSDOF 2
REMARK  Name = Metadoxine
REMARK  3 active torsions:
REMARK  status: ('A' for Active; 'I' for Inactive)
REMARK    1  A    between atoms: C_5  and  C_11
REMARK    2  A    between atoms: C_6  and  C_9
REMARK    3  A    between atoms: CA_18  and  C_19
REMARK                            x       y       z     vdW  Elec       q    Type
REMARK                         _______ _______ _______ _____ _____    ______ ____
ROOT
ATOM      1  C   UNL     1      45.045  80.105  41.001  0.00  0.00    +0.043 C 
ATOM      2  C   UNL     1      45.520  78.687  40.889  0.00  0.00    +0.089 C 
ATOM      3  C   UNL     1      45.581  78.454  39.429  0.00  0.00    +0.242 C 
ATOM      4  O   UNL     1      46.002  77.369  38.928  0.00  0.00    -0.273 OA
ATOM      5  N   UNL     1      45.111  79.595  38.717  0.00  0.00    -0.196 NA
ATOM      6  CA  UNL     1      45.152  80.712  39.616  0.00  0.00    +0.198 C 
ENDROOT
BRANCH   6   7
ATOM      7  C   UNL     1      46.425  81.468  39.496  0.00  0.00    +0.384 C 
ATOM      8  O   UNL     1      47.126  81.599  40.532  0.00  0.00    -0.244 OA
ATOM      9  OXT UNL     1      46.861  82.024  38.313  0.00  0.00    -0.244 OA
ENDBRANCH   6   7
TORSDOF 1
