REMARK  Name = Metaxalone
REMARK  3 active torsions:
REMARK  status: ('A' for Active; 'I' for Inactive)
REMARK    1  A    between atoms: C_6  and  O_8
REMARK    2  A    between atoms: O_8  and  C_9
REMARK    3  A    between atoms: C_9  and  C_10
REMARK                            x       y       z     vdW  Elec       q    Type
REMARK                         _______ _______ _______ _____ _____    ______ ____
ROOT
ATOM      1  C   UNL     1      47.797  85.515  43.574  0.00  0.00    +0.031 C 
ATOM      2  C   UNL     1      48.455  84.266  43.093  0.00  0.00    -0.019 A 
ATOM      3  C   UNL     1      49.805  84.211  42.874  0.00  0.00    -0.008 A 
ATOM      4  C   UNL     1      50.410  83.072  42.436  0.00  0.00    -0.019 A 
ATOM      5  C   UNL     1      49.674  81.927  42.197  0.00  0.00    +0.033 A 
ATOM      6  C   UNL     1      48.317  81.937  42.401  0.00  0.00    +0.138 A 
ATOM      7  C   UNL     1      47.735  83.130  42.854  0.00  0.00    +0.033 A 
ATOM      8  C   UNL     1      51.893  83.023  42.199  0.00  0.00    +0.031 C 
ENDROOT
BRANCH   6   9
ATOM      9  O   UNL     1      47.553  80.843  42.175  0.00  0.00    -0.472 OA
BRANCH   9  10
ATOM     10  C   UNL     1      46.316  80.712  41.602  0.00  0.00    +0.251 C 
BRANCH  10  11
ATOM     11  C   UNL     1      46.384  79.959  40.300  0.00  0.00    +0.235 C 
ATOM     12  C   UNL     1      45.064  79.273  39.987  0.00  0.00    +0.166 C 
ATOM     13  N   UNL     1      44.296  80.335  39.369  0.00  0.00    -0.165 NA
ATOM     14  C   UNL     1      45.170  81.372  38.965  0.00  0.00    +0.421 C 
ATOM     15  O   UNL     1      44.929  82.480  38.421  0.00  0.00    -0.225 OA
ATOM     16  O   UNL     1      46.452  80.957  39.282  0.00  0.00    -0.432 OA
ENDBRANCH  10  11
ENDBRANCH   9  10
ENDBRANCH   6   9
TORSDOF 3
