REMARK  Name = Metaproterenol_Sulfate
REMARK  8 active torsions:
REMARK  status: ('A' for Active; 'I' for Inactive)
REMARK    1  A    between atoms: C_2  and  N_4
REMARK    2  A    between atoms: N_4  and  C_5
REMARK    3  A    between atoms: C_5  and  C_6
REMARK    4  A    between atoms: C_6  and  C_7
REMARK    5  A    between atoms: C_17  and  N_19
REMARK    6  A    between atoms: N_19  and  C_20
REMARK    7  A    between atoms: C_20  and  C_21
REMARK    8  A    between atoms: C_21  and  C_22
REMARK                            x       y       z     vdW  Elec       q    Type
REMARK                         _______ _______ _______ _____ _____    ______ ____
ROOT
ATOM      1  C   UNL     1      48.771  81.761  42.508  0.00  0.00    +0.015 A 
ATOM      2  C   UNL     1      50.074  81.323  42.478  0.00  0.00    +0.040 A 
ATOM      3  C   UNL     1      51.130  82.222  42.626  0.00  0.00    +0.199 A 
ATOM      4  C   UNL     1      50.881  83.567  42.805  0.00  0.00    +0.084 A 
ATOM      5  C   UNL     1      49.578  84.013  42.836  0.00  0.00    +0.199 A 
ATOM      6  C   UNL     1      48.557  83.102  42.687  0.00  0.00    +0.040 A 
ATOM      7  O   UNL     1      49.332  85.366  43.015  0.00  0.00    -0.286 OA
ATOM      8  O   UNL     1      52.451  81.754  42.593  0.00  0.00    -0.286 OA
ENDROOT
BRANCH   1   9
ATOM      9  C   UNL     1      47.665  80.782  42.348  0.00  0.00    +0.192 C 
ATOM     10  O   UNL     1      46.671  81.030  43.293  0.00  0.00    -0.217 OA
BRANCH   9  11
ATOM     11  C   UNL     1      47.072  80.835  40.940  0.00  0.00    +0.126 C 
BRANCH  11  12
ATOM     12  N   UNL     1      45.923  79.979  40.937  0.00  0.00    -0.216 NA
BRANCH  12  14
ATOM     13  C   UNL     1      44.425  79.539  39.098  0.00  0.00    +0.019 C 
ATOM     14  C   UNL     1      45.765  79.232  39.723  0.00  0.00    +0.073 C 
ATOM     15  C   UNL     1      45.932  77.745  39.902  0.00  0.00    +0.019 C 
ENDBRANCH  12  14
ENDBRANCH  11  12
ENDBRANCH   9  11
ENDBRANCH   1   9
TORSDOF 4
REMARK  Name = Metaproterenol_Sulfate
REMARK  8 active torsions:
REMARK  status: ('A' for Active; 'I' for Inactive)
REMARK    1  A    between atoms: C_2  and  N_4
REMARK    2  A    between atoms: N_4  and  C_5
REMARK    3  A    between atoms: C_5  and  C_6
REMARK    4  A    between atoms: C_6  and  C_7
REMARK    5  A    between atoms: C_17  and  N_19
REMARK    6  A    between atoms: N_19  and  C_20
REMARK    7  A    between atoms: C_20  and  C_21
REMARK    8  A    between atoms: C_21  and  C_22
REMARK                            x       y       z     vdW  Elec       q    Type
REMARK                         _______ _______ _______ _____ _____    ______ ____
ROOT
ATOM      1  C   UNL     1      46.531  80.384  40.960  0.00  0.00    +0.015 A 
ATOM      2  C   UNL     1      45.845  79.189  40.906  0.00  0.00    +0.040 A 
ATOM      3  C   UNL     1      44.819  78.970  39.999  0.00  0.00    +0.199 A 
ATOM      4  C   UNL     1      44.451  79.954  39.113  0.00  0.00    +0.084 A 
ATOM      5  C   UNL     1      45.111  81.146  39.143  0.00  0.00    +0.199 A 
ATOM      6  C   UNL     1      46.132  81.357  40.050  0.00  0.00    +0.040 A 
ATOM      7  O   UNL     1      44.754  82.158  38.254  0.00  0.00    -0.286 OA
ATOM      8  O   UNL     1      44.139  77.756  39.961  0.00  0.00    -0.286 OA
ENDROOT
BRANCH   1   9
ATOM      9  C   UNL     1      47.611  80.585  41.932  0.00  0.00    +0.192 C 
ATOM     10  O   UNL     1      48.439  79.485  41.962  0.00  0.00    -0.217 OA
BRANCH   9  11
ATOM     11  C   UNL     1      48.367  81.875  41.696  0.00  0.00    +0.126 C 
BRANCH  11  12
ATOM     12  N   UNL     1      48.998  82.348  42.913  0.00  0.00    -0.216 NA
BRANCH  12  14
ATOM     13  C   UNL     1      51.079  83.247  43.830  0.00  0.00    +0.019 C 
ATOM     14  C   UNL     1      50.259  82.957  42.599  0.00  0.00    +0.073 C 
ATOM     15  C   UNL     1      49.974  84.225  41.813  0.00  0.00    +0.019 C 
ENDBRANCH  12  14
ENDBRANCH  11  12
ENDBRANCH   9  11
ENDBRANCH   1   9
TORSDOF 4
REMARK  Name = Metaproterenol_Sulfate
REMARK  8 active torsions:
REMARK  status: ('A' for Active; 'I' for Inactive)
REMARK    1  A    between atoms: C_2  and  N_4
REMARK    2  A    between atoms: N_4  and  C_5
REMARK    3  A    between atoms: C_5  and  C_6
REMARK    4  A    between atoms: C_6  and  C_7
REMARK    5  A    between atoms: C_17  and  N_19
REMARK    6  A    between atoms: N_19  and  C_20
REMARK    7  A    between atoms: C_20  and  C_21
REMARK    8  A    between atoms: C_21  and  C_22
REMARK                            x       y       z     vdW  Elec       q    Type
REMARK                         _______ _______ _______ _____ _____    ______ ____
ROOT
ATOM      1  O   UNL     1      47.370  80.190  40.733  0.00  0.00    -0.020 OA
ATOM      2  S   UNL     1      47.552  81.738  41.335  0.00  0.00    +0.267 S 
ATOM      3  O   UNL     1      46.426  82.069  42.263  0.00  0.00    -0.113 OA
ATOM      4  O   UNL     1      47.603  82.712  40.194  0.00  0.00    -0.113 OA
ATOM      5  O   UNL     1      49.013  81.879  42.166  0.00  0.00    -0.020 OA
ENDROOT
TORSDOF 0
