REMARK  Name = Metergolin
REMARK  5 active torsions:
REMARK  status: ('A' for Active; 'I' for Inactive)
REMARK    1  A    between atoms: C_4  and  C_19
REMARK    2  A    between atoms: C_19  and  N_20
REMARK    3  A    between atoms: C_21  and  O_23
REMARK    4  A    between atoms: O_23  and  C_24
REMARK    5  A    between atoms: C_24  and  C_25
REMARK                            x       y       z     vdW  Elec       q    Type
REMARK                         _______ _______ _______ _____ _____    ______ ____
ROOT
ATOM      1  C   UNL     1      44.882  82.311  39.336  0.00  0.00    +0.090 C 
ATOM      2  N   UNL     1      45.557  81.143  38.875  0.00  0.00    -0.272 NA
ATOM      3  C   UNL     1      46.889  80.979  39.302  0.00  0.00    +0.074 C 
ATOM      4  C   UNL     1      47.047  80.192  40.590  0.00  0.00    +0.038 C 
ATOM      5  C   UNL     1      46.103  79.089  40.742  0.00  0.00    +0.009 C 
ATOM      6  C   UNL     1      44.647  79.546  40.380  0.00  0.00    +0.037 C 
ATOM      7  C   UNL     1      44.752  79.943  38.942  0.00  0.00    +0.066 C 
ATOM      8  C   UNL     1      43.480  80.053  38.194  0.00  0.00    +0.044 C 
ATOM      9  C   UNL     1      42.666  78.846  38.377  0.00  0.00    -0.003 A 
ATOM     10  C   UNL     1      41.660  78.199  37.675  0.00  0.00    +0.072 A 
ATOM     11  N   UNL     1      41.288  77.112  38.375  0.00  0.00    -0.324 N 
ATOM     12  C   UNL     1      42.006  77.019  39.506  0.00  0.00    +0.059 A 
ATOM     13  C   UNL     1      42.061  76.151  40.576  0.00  0.00    +0.017 A 
ATOM     14  C   UNL     1      42.952  76.367  41.608  0.00  0.00    +0.001 A 
ATOM     15  C   UNL     1      43.807  77.477  41.567  0.00  0.00    -0.004 A 
ATOM     16  C   UNL     1      43.767  78.357  40.505  0.00  0.00    -0.020 A 
ATOM     17  C   UNL     1      42.859  78.091  39.507  0.00  0.00    +0.009 A 
ATOM     18  C   UNL     1      40.264  76.149  38.007  0.00  0.00    +0.130 C 
ENDROOT
BRANCH   4  19
ATOM     19  C   UNL     1      48.483  79.826  40.688  0.00  0.00    +0.120 C 
BRANCH  19  20
ATOM     20  N   UNL     1      49.489  80.802  40.717  0.00  0.00    -0.169 NA
ATOM     21  C   UNL     1      50.390  81.091  41.771  0.00  0.00    +0.421 C 
ATOM     22  O   UNL     1      51.602  81.316  41.616  0.00  0.00    -0.225 OA
BRANCH  21  23
ATOM     23  O   UNL     1      49.933  81.137  43.096  0.00  0.00    -0.429 OA
BRANCH  23  24
ATOM     24  C   UNL     1      50.593  81.895  44.093  0.00  0.00    +0.237 C 
BRANCH  24  25
ATOM     25  C   UNL     1      50.141  83.291  43.960  0.00  0.00    +0.021 A 
ATOM     26  C   UNL     1      51.014  84.335  44.150  0.00  0.00    -0.001 A 
ATOM     27  C   UNL     1      50.589  85.661  44.026  0.00  0.00    -0.000 A 
ATOM     28  C   UNL     1      49.283  85.921  43.709  0.00  0.00    -0.000 A 
ATOM     29  C   UNL     1      48.402  84.884  43.517  0.00  0.00    -0.000 A 
ATOM     30  C   UNL     1      48.836  83.583  43.643  0.00  0.00    -0.001 A 
ENDBRANCH  24  25
ENDBRANCH  23  24
ENDBRANCH  21  23
ENDBRANCH  19  20
ENDBRANCH   4  19
TORSDOF 5
