REMARK  Name = Methylene_blue
REMARK  1 active torsions:
REMARK  status: ('A' for Active; 'I' for Inactive)
REMARK    1  A    between atoms: N_2  and  C_4
REMARK                            x       y       z     vdW  Elec       q    Type
REMARK                         _______ _______ _______ _____ _____    ______ ____
ROOT
ATOM      1  C   UNL     1      47.844  81.587  40.656  0.00  0.00    +0.049 A 
ATOM      2  C   UNL     1      47.180  80.445  41.043  0.00  0.00    +0.023 A 
ATOM      3  C   UNL     1      46.068  80.003  40.343  0.00  0.00    +0.048 A 
ATOM      4  C   UNL     1      45.577  80.669  39.244  0.00  0.00    +0.087 A 
ATOM      5  C   UNL     1      46.258  81.834  38.852  0.00  0.00    +0.021 A 
ATOM      6  C   UNL     1      47.363  82.266  39.555  0.00  0.00    +0.016 A 
ATOM      7  N   UNL     1      44.518  80.312  38.517  0.00  0.00    -0.244 NA
ATOM      8  C   UNL     1      43.724  79.272  38.680  0.00  0.00    +0.087 A 
ATOM      9  C   UNL     1      42.666  79.111  37.777  0.00  0.00    +0.021 A 
ATOM     10  C   UNL     1      41.840  78.043  37.934  0.00  0.00    +0.018 A 
ATOM     11  C   UNL     1      41.948  77.086  38.918  0.00  0.00    +0.057 A 
ATOM     12  N   UNL     1      41.144  76.107  39.016  0.00  0.00    -0.344 N 
ATOM     13  C   UNL     1      41.275  75.122  40.050  0.00  0.00    +0.126 C 
ATOM     14  C   UNL     1      40.057  75.995  38.038  0.00  0.00    +0.126 C 
ATOM     15  C   UNL     1      42.991  77.232  39.822  0.00  0.00    +0.025 A 
ATOM     16  C   UNL     1      43.870  78.278  39.737  0.00  0.00    +0.049 A 
ATOM     17  S   UNL     1      45.189  78.584  40.769  0.00  0.00    -0.084 S 
ENDROOT
BRANCH   1  19
ATOM     18  C   UNL     1      49.439  81.270  42.534  0.00  0.00    +0.112 C 
ATOM     19  N   UNL     1      48.963  82.008  41.384  0.00  0.00    -0.304 N 
ATOM     20  C   UNL     1      49.665  83.227  40.964  0.00  0.00    +0.112 C 
ENDBRANCH   1  19
TORSDOF 1
REMARK  Name = Methylene_blue
REMARK  1 active torsions:
REMARK  status: ('A' for Active; 'I' for Inactive)
REMARK    1  A    between atoms: N_2  and  C_4
REMARK                            x       y       z     vdW  Elec       q    Type
REMARK                         _______ _______ _______ _____ _____    ______ ____
ROOT
ATOM      1 CL   UNL     1      44.950  79.302  39.816  0.00  0.00    +0.000 Cl
ENDROOT
TORSDOF 0
