REMARK  Name = Methylergonovine
REMARK  4 active torsions:
REMARK  status: ('A' for Active; 'I' for Inactive)
REMARK    1  A    between atoms: C_2  and  CA_3
REMARK    2  A    between atoms: CA_3  and  C_4
REMARK    3  A    between atoms: CA_3  and  N_6
REMARK    4  A    between atoms: C_7  and  C_9
REMARK                            x       y       z     vdW  Elec       q    Type
REMARK                         _______ _______ _______ _____ _____    ______ ____
ROOT
ATOM      1  C   UNL     1      47.035  81.551  41.201  0.00  0.00    +0.116 C 
ATOM      2  C   UNL     1      47.462  81.621  39.756  0.00  0.00    +0.086 C 
ATOM      3  N   UNL     1      46.230  81.698  38.967  0.00  0.00    -0.268 NA
ATOM      4  C   UNL     1      45.544  80.422  39.012  0.00  0.00    +0.084 C 
ATOM      5  C   UNL     1      44.123  80.615  38.572  0.00  0.00    +0.048 C 
ATOM      6  C   UNL     1      43.335  79.373  38.729  0.00  0.00    +0.000 A 
ATOM      7  C   UNL     1      42.212  78.789  38.140  0.00  0.00    +0.095 A 
ATOM      8  N   UNL     1      41.954  77.593  38.765  0.00  0.00    -0.244 NA
ATOM      9  C   UNL     1      42.864  77.382  39.732  0.00  0.00    +0.081 A 
ATOM     10  C   UNL     1      43.153  76.415  40.684  0.00  0.00    +0.019 A 
ATOM     11  C   UNL     1      44.250  76.572  41.552  0.00  0.00    +0.002 A 
ATOM     12  C   UNL     1      45.075  77.672  41.500  0.00  0.00    -0.000 A 
ATOM     13  C   UNL     1      44.769  78.624  40.543  0.00  0.00    -0.002 A 
ATOM     14  C   UNL     1      43.691  78.467  39.696  0.00  0.00    +0.015 A 
ATOM     15  C   UNL     1      45.569  79.842  40.377  0.00  0.00    -0.011 C 
ATOM     16  C   UNL     1      46.244  80.326  41.400  0.00  0.00    -0.019 C 
ATOM     17  C   UNL     1      46.484  82.108  37.618  0.00  0.00    +0.090 C 
ENDROOT
BRANCH   1  19
ATOM     18  N   UNL     1      49.508  82.042  41.583  0.00  0.00    -0.204 NA
ATOM     19  C   UNL     1      48.253  81.617  42.027  0.00  0.00    +0.246 C 
ATOM     20  O   UNL     1      48.142  81.258  43.228  0.00  0.00    -0.273 OA
BRANCH  18  21
ATOM     21  CA  UNL     1      50.106  83.276  41.963  0.00  0.00    +0.128 C 
BRANCH  21  23
ATOM     22  C   UNL     1      48.875  84.767  43.565  0.00  0.00    +0.002 C 
ATOM     23  C   UNL     1      49.853  83.622  43.423  0.00  0.00    +0.024 C 
ENDBRANCH  21  23
BRANCH  21  24
ATOM     24  C   UNL     1      51.582  83.359  41.731  0.00  0.00    +0.204 C 
ATOM     25  O   UNL     1      52.333  82.609  42.620  0.00  0.00    -0.219 OA
ENDBRANCH  21  24
ENDBRANCH  18  21
ENDBRANCH   1  19
TORSDOF 4
