REMARK  Name = Methylscopolamine
REMARK  5 active torsions:
REMARK  status: ('A' for Active; 'I' for Inactive)
REMARK    1  A    between atoms: C_5  and  O_11
REMARK    2  A    between atoms: O_11  and  C_12
REMARK    3  A    between atoms: C_12  and  C_14
REMARK    4  A    between atoms: C_14  and  C_15
REMARK    5  A    between atoms: C_14  and  C_17
REMARK                            x       y       z     vdW  Elec       q    Type
REMARK                         _______ _______ _______ _____ _____    ______ ____
ROOT
ATOM      1  O   UNL     1      47.406  81.231  40.956  0.00  0.00    -0.452 OA
ENDROOT
BRANCH   1   6
ATOM      2  C   UNL     1      45.130  80.052  37.967  0.00  0.00    -0.095 C 
ATOM      3  N   UNL     1      44.557  79.240  38.981  0.00  0.00    +0.393 N 
ATOM      4  C   UNL     1      44.041  79.997  40.115  0.00  0.00    -0.020 C 
ATOM      5  C   UNL     1      45.108  80.941  40.553  0.00  0.00    +0.026 C 
ATOM      6  C   UNL     1      46.371  80.264  41.019  0.00  0.00    +0.165 C 
ATOM      7  C   UNL     1      46.692  79.055  40.175  0.00  0.00    +0.026 C 
ATOM      8  C   UNL     1      45.494  78.354  39.639  0.00  0.00    -0.020 C 
ATOM      9  C   UNL     1      44.617  77.787  40.746  0.00  0.00    +0.122 C 
ATOM     10  C   UNL     1      43.676  78.948  41.098  0.00  0.00    +0.122 C 
ATOM     11  O   UNL     1      44.571  78.395  41.970  0.00  0.00    -0.358 OA
ATOM     12  C   UNL     1      43.470  78.409  38.486  0.00  0.00    -0.095 C 
ENDBRANCH   1   6
BRANCH   1  13
ATOM     13  C   UNL     1      48.502  81.222  41.821  0.00  0.00    +0.323 C 
ATOM     14  O   UNL     1      48.607  80.206  42.547  0.00  0.00    -0.250 OA
BRANCH  13  15
ATOM     15  C   UNL     1      49.480  82.306  41.899  0.00  0.00    +0.154 C 
BRANCH  15  16
ATOM     16  C   UNL     1      48.892  83.428  42.670  0.00  0.00    -0.009 A 
ATOM     17  C   UNL     1      47.773  84.073  42.187  0.00  0.00    -0.004 A 
ATOM     18  C   UNL     1      47.223  85.111  42.892  0.00  0.00    -0.000 A 
ATOM     19  C   UNL     1      47.788  85.502  44.074  0.00  0.00    -0.000 A 
ATOM     20  C   UNL     1      48.904  84.857  44.554  0.00  0.00    -0.000 A 
ATOM     21  C   UNL     1      49.469  83.820  43.866  0.00  0.00    -0.004 A 
ENDBRANCH  15  16
BRANCH  15  22
ATOM     22  C   UNL     1      50.715  81.774  42.597  0.00  0.00    +0.198 C 
ATOM     23  O   UNL     1      51.801  82.509  42.073  0.00  0.00    -0.219 OA
ENDBRANCH  15  22
ENDBRANCH  13  15
ENDBRANCH   1  13
TORSDOF 5
