REMARK  Name = Methylprednisolone
REMARK  2 active torsions:
REMARK  status: ('A' for Active; 'I' for Inactive)
REMARK    1  A    between atoms: C_8  and  C_23
REMARK    2  A    between atoms: C_23  and  C_25
REMARK                            x       y       z     vdW  Elec       q    Type
REMARK                         _______ _______ _______ _____ _____    ______ ____
ROOT
ATOM      1  C   UNL     1      43.239  77.245  42.497  0.00  0.00    +0.004 C 
ATOM      2  C   UNL     1      44.311  77.612  41.486  0.00  0.00    +0.019 C 
ATOM      3  C   UNL     1      45.252  78.594  42.029  0.00  0.00    +0.004 C 
ATOM      4  C   UNL     1      46.115  79.296  41.007  0.00  0.00    +0.003 C 
ATOM      5  C   UNL     1      46.832  80.374  41.786  0.00  0.00    +0.003 C 
ATOM      6  C   UNL     1      48.004  79.774  42.528  0.00  0.00    +0.003 C 
ATOM      7  C   UNL     1      49.191  80.152  41.666  0.00  0.00    +0.038 C 
ATOM      8  C   UNL     1      48.860  81.630  41.412  0.00  0.00    +0.180 C 
ATOM      9  C   UNL     1      47.402  81.494  41.017  0.00  0.00    +0.035 C 
ATOM     10  C   UNL     1      47.215  81.327  39.551  0.00  0.00    +0.036 C 
ATOM     11  C   UNL     1      45.692  81.118  39.355  0.00  0.00    +0.153 C 
ATOM     12  C   UNL     1      45.428  79.728  39.776  0.00  0.00    +0.038 C 
ATOM     13  C   UNL     1      43.925  79.467  39.827  0.00  0.00    +0.036 C 
ATOM     14  C   UNL     1      43.696  78.064  40.202  0.00  0.00    -0.038 C 
ATOM     15  C   UNL     1      43.007  77.226  39.484  0.00  0.00    +0.034 C 
ATOM     16  C   UNL     1      42.393  77.599  38.238  0.00  0.00    +0.195 C 
ATOM     17  O   UNL     1      41.728  76.763  37.562  0.00  0.00    -0.287 OA
ATOM     18  C   UNL     1      42.578  78.976  37.804  0.00  0.00    +0.038 C 
ATOM     19  C   UNL     1      43.284  79.801  38.557  0.00  0.00    -0.020 C 
ATOM     20  C   UNL     1      43.269  80.403  40.864  0.00  0.00    +0.009 C 
ATOM     21  O   UNL     1      45.497  81.367  37.993  0.00  0.00    -0.223 OA
ATOM     22  C   UNL     1      46.749  82.830  41.400  0.00  0.00    +0.003 C 
ATOM     23  O   UNL     1      48.969  82.281  42.619  0.00  0.00    -0.218 OA
ENDROOT
BRANCH   8  24
ATOM     24  C   UNL     1      49.701  82.224  40.376  0.00  0.00    +0.211 C 
ATOM     25  O   UNL     1      50.255  81.606  39.514  0.00  0.00    -0.291 OA
BRANCH  24  26
ATOM     26  C   UNL     1      49.889  83.719  40.386  0.00  0.00    +0.248 C 
ATOM     27  O   UNL     1      50.877  84.115  39.512  0.00  0.00    -0.212 OA
ENDBRANCH  24  26
ENDBRANCH   8  24
TORSDOF 2
