REMARK  Name = Methoxsalen
REMARK  1 active torsions:
REMARK  status: ('A' for Active; 'I' for Inactive)
REMARK    1  A    between atoms: O_2  and  C_3
REMARK                            x       y       z     vdW  Elec       q    Type
REMARK                         _______ _______ _______ _____ _____    ______ ____
ROOT
ATOM      1  C   UNL     1      44.283  79.264  39.379  0.00  0.00    +0.207 A 
ATOM      2  C   UNL     1      45.235  80.259  39.500  0.00  0.00    +0.185 A 
ATOM      3  C   UNL     1      46.135  80.177  40.542  0.00  0.00    +0.038 A 
ATOM      4  C   UNL     1      46.066  79.115  41.434  0.00  0.00    +0.006 A 
ATOM      5  C   UNL     1      45.097  78.135  41.281  0.00  0.00    +0.041 A 
ATOM      6  C   UNL     1      44.188  78.196  40.246  0.00  0.00    +0.182 A 
ATOM      7  O   UNL     1      43.385  77.147  40.335  0.00  0.00    -0.447 OA
ATOM      8  C   UNL     1      43.712  76.408  41.357  0.00  0.00    +0.180 A 
ATOM      9  C   UNL     1      44.805  76.997  42.000  0.00  0.00    +0.044 A 
ATOM     10  C   UNL     1      47.088  81.171  40.666  0.00  0.00    +0.010 A 
ATOM     11  C   UNL     1      47.123  82.215  39.756  0.00  0.00    +0.082 A 
ATOM     12  C   UNL     1      46.191  82.229  38.740  0.00  0.00    +0.346 A 
ATOM     13  O   UNL     1      46.228  83.190  37.906  0.00  0.00    -0.244 OA
ATOM     14  O   UNL     1      45.301  81.270  38.653  0.00  0.00    -0.418 OA
ENDROOT
BRANCH   1  16
ATOM     15  C   UNL     1      42.057  78.841  38.471  0.00  0.00    +0.253 C 
ATOM     16  O   UNL     1      43.385  79.343  38.340  0.00  0.00    -0.465 OA
ENDBRANCH   1  16
TORSDOF 1
