REMARK  Name = Methyclothiazide
REMARK  2 active torsions:
REMARK  status: ('A' for Active; 'I' for Inactive)
REMARK    1  A    between atoms: C_3  and  C_19
REMARK    2  A    between atoms: C_8  and  S_14
REMARK                            x       y       z     vdW  Elec       q    Type
REMARK                         _______ _______ _______ _____ _____    ______ ____
ROOT
ATOM      1  C   UNL     1      44.560  79.343  37.776  0.00  0.00    +0.117 C 
ATOM      2  N   UNL     1      44.707  79.630  39.178  0.00  0.00    -0.134 NA
ATOM      3  C   UNL     1      45.032  78.542  39.993  0.00  0.00    +0.187 C 
ATOM      4  N   UNL     1      45.871  78.717  41.114  0.00  0.00    -0.219 NA
ATOM      5  C   UNL     1      46.852  79.738  41.292  0.00  0.00    +0.086 A 
ATOM      6  C   UNL     1      47.931  79.594  42.132  0.00  0.00    +0.030 A 
ATOM      7  C   UNL     1      48.851  80.608  42.269  0.00  0.00    +0.078 A 
ATOM      8  C   UNL     1      48.706  81.774  41.573  0.00  0.00    +0.137 A 
ATOM      9  C   UNL     1      47.621  81.920  40.728  0.00  0.00    +0.042 A 
ATOM     10  C   UNL     1      46.725  80.918  40.601  0.00  0.00    +0.138 A 
ATOM     11  S   UNL     1      45.373  81.127  39.535  0.00  0.00    +0.066 S 
ATOM     12  O   UNL     1      45.888  81.755  38.250  0.00  0.00    -0.153 OA
ATOM     13  O   UNL     1      44.374  82.011  40.201  0.00  0.00    -0.153 OA
ATOM     14 CL   UNL     1      50.221  80.397  43.350  0.00  0.00    -0.081 Cl
ENDROOT
BRANCH   8  15
ATOM     15  S   UNL     1      49.901  83.035  41.780  0.00  0.00    +0.094 S 
ATOM     16  O   UNL     1      49.654  84.083  40.731  0.00  0.00    -0.150 OA
ATOM     17  O   UNL     1      49.676  83.663  43.126  0.00  0.00    -0.150 OA
ATOM     18  N   UNL     1      51.498  82.428  41.602  0.00  0.00    +0.039 NA
ENDBRANCH   8  15
BRANCH   3  19
ATOM     19  C   UNL     1      43.710  77.937  40.496  0.00  0.00    +0.135 C 
ATOM     20 CL   UNL     1      43.322  78.744  42.056  0.00  0.00    -0.110 Cl
ENDBRANCH   3  19
TORSDOF 2
