REMARK  Name = Methyltestosterone
REMARK  0 active torsions:
REMARK  status: ('A' for Active; 'I' for Inactive)
REMARK                            x       y       z     vdW  Elec       q    Type
REMARK                         _______ _______ _______ _____ _____    ______ ____
ROOT
ATOM      1  C   UNL     1      45.887  79.669  41.519  0.00  0.00    +0.004 C 
ATOM      2  C   UNL     1      46.564  80.688  40.624  0.00  0.00    +0.016 C 
ATOM      3  C   UNL     1      46.957  79.960  39.356  0.00  0.00    +0.012 C 
ATOM      4  C   UNL     1      45.796  79.165  38.804  0.00  0.00    +0.069 C 
ATOM      5  C   UNL     1      44.518  79.910  38.913  0.00  0.00    +0.173 C 
ATOM      6  O   UNL     1      43.458  79.375  38.574  0.00  0.00    -0.291 OA
ATOM      7  C   UNL     1      44.573  81.282  39.430  0.00  0.00    +0.029 C 
ATOM      8  C   UNL     1      45.536  81.686  40.249  0.00  0.00    -0.042 C 
ATOM      9  C   UNL     1      45.642  83.041  40.795  0.00  0.00    +0.022 C 
ATOM     10  C   UNL     1      46.218  83.084  42.164  0.00  0.00    +0.004 C 
ATOM     11  C   UNL     1      47.452  82.276  42.364  0.00  0.00    +0.001 C 
ATOM     12  C   UNL     1      47.751  81.267  41.313  0.00  0.00    +0.003 C 
ATOM     13  C   UNL     1      48.801  81.813  40.367  0.00  0.00    +0.000 C 
ATOM     14  C   UNL     1      50.137  81.868  41.124  0.00  0.00    +0.002 C 
ATOM     15  C   UNL     1      49.951  82.450  42.479  0.00  0.00    +0.026 C 
ATOM     16  C   UNL     1      48.625  83.194  42.487  0.00  0.00    +0.002 C 
ATOM     17  C   UNL     1      48.703  83.967  43.752  0.00  0.00    +0.003 C 
ATOM     18  C   UNL     1      50.193  84.289  43.922  0.00  0.00    +0.030 C 
ATOM     19  C   UNL     1      50.899  83.620  42.764  0.00  0.00    +0.127 C 
ATOM     20  C   UNL     1      52.275  83.145  43.117  0.00  0.00    +0.033 C 
ATOM     21  O   UNL     1      50.900  84.494  41.693  0.00  0.00    -0.226 OA
ATOM     22  C   UNL     1      50.091  81.480  43.600  0.00  0.00    +0.002 C 
ENDROOT
TORSDOF 0
