REMARK  Name = Methyprylon
REMARK  2 active torsions:
REMARK  status: ('A' for Active; 'I' for Inactive)
REMARK    1  A    between atoms: C_2  and  C_3
REMARK    2  A    between atoms: C_3  and  C_12
REMARK                            x       y       z     vdW  Elec       q    Type
REMARK                         _______ _______ _______ _____ _____    ______ ____
ROOT
ATOM      1  C   UNL     1      45.536  80.273  40.036  0.00  0.00    +0.122 C 
ATOM      2  C   UNL     1      46.794  80.771  40.648  0.00  0.00    +0.159 C 
ATOM      3  O   UNL     1      47.287  80.347  41.676  0.00  0.00    -0.296 OA
ATOM      4  C   UNL     1      47.518  81.874  39.962  0.00  0.00    +0.080 C 
ATOM      5  C   UNL     1      46.496  82.977  39.709  0.00  0.00    +0.122 C 
ATOM      6  N   UNL     1      45.534  82.404  38.775  0.00  0.00    -0.205 NA
ATOM      7  C   UNL     1      45.318  80.989  38.738  0.00  0.00    +0.247 C 
ATOM      8  O   UNL     1      44.971  80.399  37.684  0.00  0.00    -0.273 OA
ATOM      9  C   UNL     1      48.715  82.354  40.705  0.00  0.00    +0.010 C 
ENDROOT
BRANCH   1  11
ATOM     10  C   UNL     1      46.122  78.422  38.489  0.00  0.00    +0.001 C 
ATOM     11  C   UNL     1      45.645  78.799  39.842  0.00  0.00    +0.016 C 
ENDBRANCH   1  11
BRANCH   1  12
ATOM     12  C   UNL     1      44.332  80.564  40.901  0.00  0.00    +0.016 C 
ATOM     13  C   UNL     1      43.727  79.276  41.414  0.00  0.00    +0.001 C 
ENDBRANCH   1  12
TORSDOF 2
