REMARK  Name = Methohexital
REMARK  5 active torsions:
REMARK  status: ('A' for Active; 'I' for Inactive)
REMARK    1  A    between atoms: C_2  and  C_3
REMARK    2  A    between atoms: C_4  and  C_5
REMARK    3  A    between atoms: C_5  and  C_7
REMARK    4  A    between atoms: C_7  and  C_17
REMARK    5  A    between atoms: C_17  and  C_18
REMARK                            x       y       z     vdW  Elec       q    Type
REMARK                         _______ _______ _______ _____ _____    ______ ____
ROOT
ATOM      1  C   UNL     1      47.610  81.366  41.178  0.00  0.00    +0.155 C 
ATOM      2  C   UNL     1      47.966  82.180  40.007  0.00  0.00    +0.258 C 
ATOM      3  O   UNL     1      49.146  82.540  39.848  0.00  0.00    -0.272 OA
ATOM      4  N   UNL     1      46.948  82.535  39.086  0.00  0.00    -0.127 NA
ATOM      5  C   UNL     1      45.741  81.795  39.009  0.00  0.00    +0.336 C 
ATOM      6  O   UNL     1      44.830  82.101  38.194  0.00  0.00    -0.250 OA
ATOM      7  N   UNL     1      45.554  80.683  39.868  0.00  0.00    -0.210 N 
ATOM      8  C   UNL     1      46.589  80.344  40.787  0.00  0.00    +0.241 C 
ATOM      9  O   UNL     1      46.653  79.191  41.272  0.00  0.00    -0.274 OA
ATOM     10  C   UNL     1      44.329  79.890  39.828  0.00  0.00    +0.124 C 
ENDROOT
BRANCH   1  11
ATOM     11  C   UNL     1      47.009  82.186  42.294  0.00  0.00    +0.081 C 
ATOM     12  C   UNL     1      46.629  81.297  43.459  0.00  0.00    +0.015 C 
BRANCH  11  14
ATOM     13  C   UNL     1      48.940  83.914  43.016  0.00  0.00    -0.091 C 
ATOM     14  C   UNL     1      48.071  83.140  42.703  0.00  0.00    -0.091 C 
BRANCH  13  16
ATOM     15  C   UNL     1      51.281  84.376  42.774  0.00  0.00    +0.015 C 
ATOM     16  C   UNL     1      50.000  84.850  43.422  0.00  0.00    +0.076 C 
ENDBRANCH  13  16
ENDBRANCH  11  14
ENDBRANCH   1  11
BRANCH   1  17
ATOM     17  C   UNL     1      48.834  80.606  41.641  0.00  0.00    +0.044 C 
BRANCH  17  18
ATOM     18  C   UNL     1      49.098  79.514  40.665  0.00  0.00    -0.025 C 
ATOM     19  C   UNL     1      50.133  78.704  40.798  0.00  0.00    -0.005 C 
ENDBRANCH  17  18
ENDBRANCH   1  17
TORSDOF 5
