REMARK  Name = Methacycline
REMARK  2 active torsions:
REMARK  status: ('A' for Active; 'I' for Inactive)
REMARK    1  A    between atoms: N_2  and  C_4
REMARK    2  A    between atoms: C_23  and  C_26
REMARK                            x       y       z     vdW  Elec       q    Type
REMARK                         _______ _______ _______ _____ _____    ______ ____
ROOT
ATOM      1  C   UNL     1      48.469  80.539  41.273  0.00  0.00    +0.126 C 
ATOM      2  C   UNL     1      47.035  80.332  40.803  0.00  0.00    +0.096 C 
ATOM      3  C   UNL     1      46.708  78.876  40.888  0.00  0.00    +0.165 C 
ATOM      4  C   UNL     1      45.761  78.360  39.838  0.00  0.00    +0.081 C 
ATOM      5  C   UNL     1      44.974  77.206  40.270  0.00  0.00    -0.016 C 
ATOM      6  C   UNL     1      45.561  76.195  40.924  0.00  0.00    -0.004 C 
ATOM      7  C   UNL     1      43.549  77.125  40.001  0.00  0.00    +0.003 A 
ATOM      8  C   UNL     1      42.927  78.163  39.339  0.00  0.00    +0.077 A 
ATOM      9  C   UNL     1      41.579  78.150  39.054  0.00  0.00    +0.199 A 
ATOM     10  C   UNL     1      40.851  77.061  39.450  0.00  0.00    +0.042 A 
ATOM     11  C   UNL     1      41.424  76.000  40.113  0.00  0.00    +0.003 A 
ATOM     12  C   UNL     1      42.791  76.011  40.403  0.00  0.00    +0.000 A 
ATOM     13  O   UNL     1      41.044  79.234  38.387  0.00  0.00    -0.286 OA
ATOM     14  C   UNL     1      43.730  79.307  38.930  0.00  0.00    +0.198 C 
ATOM     15  C   UNL     1      45.015  79.393  39.160  0.00  0.00    +0.061 C 
ATOM     16  C   UNL     1      45.741  80.620  38.714  0.00  0.00    +0.207 C 
ATOM     17  O   UNL     1      45.279  81.316  37.825  0.00  0.00    -0.289 OA
ATOM     18  C   UNL     1      46.995  80.906  39.398  0.00  0.00    +0.239 C 
ATOM     19  C   UNL     1      47.218  82.371  39.540  0.00  0.00    +0.215 C 
ATOM     20  C   UNL     1      47.996  82.864  40.472  0.00  0.00    +0.130 C 
ATOM     21  C   UNL     1      48.684  81.992  41.419  0.00  0.00    +0.195 C 
ATOM     22  O   UNL     1      49.414  82.520  42.298  0.00  0.00    -0.290 OA
ATOM     23  O   UNL     1      46.583  83.225  38.660  0.00  0.00    -0.288 OA
ATOM     24  O   UNL     1      48.042  80.299  38.709  0.00  0.00    -0.210 OA
ATOM     25  O   UNL     1      43.112  80.388  38.251  0.00  0.00    -0.287 OA
ATOM     26  O   UNL     1      47.908  78.172  40.845  0.00  0.00    -0.222 OA
ENDROOT
BRANCH   1  28
ATOM     27  C   UNL     1      49.794  78.826  42.104  0.00  0.00    +0.090 C 
ATOM     28  N   UNL     1      48.762  79.805  42.478  0.00  0.00    -0.265 NA
ATOM     29  C   UNL     1      49.261  80.638  43.537  0.00  0.00    +0.090 C 
ENDBRANCH   1  28
BRANCH  20  30
ATOM     30  C   UNL     1      48.192  84.323  40.580  0.00  0.00    +0.290 C 
ATOM     31  O   UNL     1      48.736  84.838  41.587  0.00  0.00    -0.266 OA
ATOM     32  N   UNL     1      47.764  85.169  39.539  0.00  0.00    -0.084 NA
ENDBRANCH  20  30
TORSDOF 2
