REMARK  Name = Methylnaltrexone_bromide
REMARK  2 active torsions:
REMARK  status: ('A' for Active; 'I' for Inactive)
REMARK    1  A    between atoms: N_2  and  C_23
REMARK    2  A    between atoms: C_23  and  C_24
REMARK                            x       y       z     vdW  Elec       q    Type
REMARK                         _______ _______ _______ _____ _____    ______ ____
ROOT
ATOM      1  C   UNL     1      49.940  83.446  41.493  0.00  0.00    -0.096 C 
ATOM      2  N   UNL     1      48.931  82.454  41.840  0.00  0.00    +0.392 N 
ATOM      3  C   UNL     1      47.674  83.059  41.904  0.00  0.00    -0.072 C 
ATOM      4  C   UNL     1      46.480  82.482  41.267  0.00  0.00    -0.012 C 
ATOM      5  C   UNL     1      46.829  81.393  40.344  0.00  0.00    +0.087 C 
ATOM      6  C   UNL     1      45.799  81.056  39.298  0.00  0.00    +0.228 C 
ATOM      7  C   UNL     1      45.871  81.958  38.254  0.00  0.00    +0.191 C 
ATOM      8  O   UNL     1      45.018  82.715  37.871  0.00  0.00    -0.292 OA
ATOM      9  C   UNL     1      47.231  81.920  37.560  0.00  0.00    +0.071 C 
ATOM     10  C   UNL     1      48.254  81.164  38.425  0.00  0.00    +0.037 C 
ATOM     11  C   UNL     1      48.144  81.690  39.792  0.00  0.00    +0.118 C 
ATOM     12  C   UNL     1      49.095  81.373  40.864  0.00  0.00    -0.021 C 
ATOM     13  C   UNL     1      49.020  80.025  41.522  0.00  0.00    +0.008 C 
ATOM     14  C   UNL     1      47.669  79.513  41.759  0.00  0.00    -0.025 A 
ATOM     15  C   UNL     1      46.681  80.144  41.088  0.00  0.00    +0.016 A 
ATOM     16  C   UNL     1      45.345  79.840  41.049  0.00  0.00    +0.173 A 
ATOM     17  C   UNL     1      44.987  78.747  41.814  0.00  0.00    +0.229 A 
ATOM     18  C   UNL     1      45.944  78.036  42.548  0.00  0.00    +0.045 A 
ATOM     19  C   UNL     1      47.280  78.435  42.505  0.00  0.00    -0.001 A 
ATOM     20  O   UNL     1      43.644  78.398  41.815  0.00  0.00    -0.283 OA
ATOM     21  O   UNL     1      44.725  80.794  40.177  0.00  0.00    -0.468 OA
ATOM     22  O   UNL     1      48.267  83.103  39.587  0.00  0.00    -0.227 OA
ENDROOT
BRANCH   2  23
ATOM     23  C   UNL     1      49.300  81.983  43.167  0.00  0.00    -0.073 C 
BRANCH  23  24
ATOM     24  C   UNL     1      49.282  83.205  44.093  0.00  0.00    -0.020 C 
ATOM     25  C   UNL     1      49.673  82.870  45.564  0.00  0.00    -0.002 C 
ATOM     26  C   UNL     1      48.312  83.266  45.215  0.00  0.00    -0.002 C 
ENDBRANCH  23  24
ENDBRANCH   2  23
TORSDOF 2
REMARK  Name = Methylnaltrexone_bromide
REMARK  2 active torsions:
REMARK  status: ('A' for Active; 'I' for Inactive)
REMARK    1  A    between atoms: N_2  and  C_23
REMARK    2  A    between atoms: C_23  and  C_24
REMARK                            x       y       z     vdW  Elec       q    Type
REMARK                         _______ _______ _______ _____ _____    ______ ____
ROOT
ATOM      1 BR   UNL     1      47.778  81.514  41.426  0.00  0.00    +0.000 Br
ENDROOT
TORSDOF 0
