REMARK  Name = Methantheline
REMARK  7 active torsions:
REMARK  status: ('A' for Active; 'I' for Inactive)
REMARK    1  A    between atoms: C_2  and  N_3
REMARK    2  A    between atoms: N_3  and  C_5
REMARK    3  A    between atoms: N_3  and  C_7
REMARK    4  A    between atoms: C_7  and  C_8
REMARK    5  A    between atoms: C_8  and  O_9
REMARK    6  A    between atoms: O_9  and  C_10
REMARK    7  A    between atoms: C_10  and  C_12
REMARK                            x       y       z     vdW  Elec       q    Type
REMARK                         _______ _______ _______ _____ _____    ______ ____
ROOT
ATOM      1  C   UNL     1      44.700  79.385  39.297  0.00  0.00    +0.149 C 
ATOM      2  C   UNL     1      45.502  80.590  39.409  0.00  0.00    +0.027 A 
ATOM      3  C   UNL     1      45.642  81.483  38.349  0.00  0.00    -0.000 A 
ATOM      4  C   UNL     1      46.386  82.627  38.446  0.00  0.00    -0.000 A 
ATOM      5  C   UNL     1      47.032  82.932  39.623  0.00  0.00    +0.003 A 
ATOM      6  C   UNL     1      46.919  82.081  40.685  0.00  0.00    +0.037 A 
ATOM      7  C   UNL     1      46.156  80.925  40.558  0.00  0.00    +0.142 A 
ATOM      8  O   UNL     1      46.104  80.119  41.695  0.00  0.00    -0.454 OA
ATOM      9  C   UNL     1      45.372  78.952  41.658  0.00  0.00    +0.142 A 
ATOM     10  C   UNL     1      45.334  78.153  42.813  0.00  0.00    +0.037 A 
ATOM     11  C   UNL     1      44.635  76.985  42.849  0.00  0.00    +0.003 A 
ATOM     12  C   UNL     1      43.963  76.609  41.715  0.00  0.00    -0.000 A 
ATOM     13  C   UNL     1      44.000  77.386  40.596  0.00  0.00    -0.000 A 
ATOM     14  C   UNL     1      44.700  78.581  40.521  0.00  0.00    +0.027 A 
ENDROOT
BRANCH   1  15
ATOM     15  C   UNL     1      43.277  79.681  38.939  0.00  0.00    +0.325 C 
ATOM     16  O   UNL     1      42.602  80.305  39.798  0.00  0.00    -0.249 OA
BRANCH  15  17
ATOM     17  O   UNL     1      42.660  79.335  37.774  0.00  0.00    -0.450 OA
BRANCH  17  18
ATOM     18  C   UNL     1      41.379  78.783  37.633  0.00  0.00    +0.186 C 
BRANCH  18  19
ATOM     19  C   UNL     1      41.297  77.323  37.949  0.00  0.00    -0.025 C 
BRANCH  19  20
ATOM     20  N   UNL     1      40.037  76.687  37.763  0.00  0.00    +0.391 N 
ATOM     21  C   UNL     1      38.999  77.521  38.325  0.00  0.00    -0.096 C 
BRANCH  20  23
ATOM     22  C   UNL     1      40.972  74.401  37.721  0.00  0.00    -0.024 C 
ATOM     23  C   UNL     1      40.096  75.384  38.400  0.00  0.00    -0.073 C 
ENDBRANCH  20  23
BRANCH  20  24
ATOM     24  C   UNL     1      39.712  76.450  36.371  0.00  0.00    -0.073 C 
ATOM     25  C   UNL     1      38.706  77.421  35.825  0.00  0.00    -0.024 C 
ENDBRANCH  20  24
ENDBRANCH  19  20
ENDBRANCH  18  19
ENDBRANCH  17  18
ENDBRANCH  15  17
ENDBRANCH   1  15
TORSDOF 7
