REMARK  Name = Methyldopate_Hydrochloride
REMARK  5 active torsions:
REMARK  status: ('A' for Active; 'I' for Inactive)
REMARK    1  A    between atoms: C_2  and  O_3
REMARK    2  A    between atoms: O_3  and  C_4
REMARK    3  A    between atoms: C_4  and  C_6
REMARK    4  A    between atoms: C_6  and  C_8
REMARK    5  A    between atoms: C_8  and  C_9
REMARK                            x       y       z     vdW  Elec       q    Type
REMARK                         _______ _______ _______ _____ _____    ______ ____
ROOT
ATOM      1  C   UNL     1      47.395  81.827  41.970  0.00  0.00    +0.055 C 
ENDROOT
BRANCH   1   2
ATOM      2  C   UNL     1      46.590  81.033  41.029  0.00  0.00    -0.017 A 
ATOM      3  C   UNL     1      45.956  81.624  39.956  0.00  0.00    +0.041 A 
ATOM      4  C   UNL     1      45.198  80.894  39.065  0.00  0.00    +0.234 A 
ATOM      5  C   UNL     1      45.084  79.521  39.276  0.00  0.00    +0.234 A 
ATOM      6  C   UNL     1      45.698  78.896  40.330  0.00  0.00    +0.045 A 
ATOM      7  C   UNL     1      46.443  79.663  41.193  0.00  0.00    -0.001 A 
ATOM      8  O   UNL     1      44.321  78.810  38.374  0.00  0.00    -0.283 OA
ATOM      9  O   UNL     1      44.568  81.503  37.993  0.00  0.00    -0.283 OA
ENDBRANCH   1   2
BRANCH   1  10
ATOM     10  C   UNL     1      48.845  81.925  41.555  0.00  0.00    +0.170 C 
ATOM     11  C   UNL     1      48.948  82.641  40.216  0.00  0.00    +0.031 C 
ATOM     12  N   UNL     1      49.485  80.662  41.423  0.00  0.00    -0.123 NA
BRANCH  10  13
ATOM     13  C   UNL     1      49.541  82.738  42.569  0.00  0.00    +0.333 C 
ATOM     14  O   UNL     1      49.118  83.885  42.822  0.00  0.00    -0.249 OA
BRANCH  13  15
ATOM     15  O   UNL     1      50.639  82.230  43.223  0.00  0.00    -0.448 OA
BRANCH  15  17
ATOM     16  C   UNL     1      51.838  84.255  43.538  0.00  0.00    +0.051 C 
ATOM     17  C   UNL     1      51.331  82.992  44.208  0.00  0.00    +0.209 C 
ENDBRANCH  15  17
ENDBRANCH  13  15
ENDBRANCH  10  13
ENDBRANCH   1  10
TORSDOF 5
REMARK  Name = Methyldopate_Hydrochloride
REMARK  5 active torsions:
REMARK  status: ('A' for Active; 'I' for Inactive)
REMARK    1  A    between atoms: C_2  and  O_3
REMARK    2  A    between atoms: O_3  and  C_4
REMARK    3  A    between atoms: C_4  and  C_6
REMARK    4  A    between atoms: C_6  and  C_8
REMARK    5  A    between atoms: C_8  and  C_9
REMARK                            x       y       z     vdW  Elec       q    Type
REMARK                         _______ _______ _______ _____ _____    ______ ____
ROOT
ATOM      1 CL   UNL     1      48.502  82.064  41.749  0.00  0.00    +0.000 Cl
ENDROOT
TORSDOF 0
