REMARK  Name = Methyl_aminolevulinate
REMARK  5 active torsions:
REMARK  status: ('A' for Active; 'I' for Inactive)
REMARK    1  A    between atoms: O_2  and  C_3
REMARK    2  A    between atoms: C_3  and  C_5
REMARK    3  A    between atoms: C_5  and  C_6
REMARK    4  A    between atoms: C_6  and  C_7
REMARK    5  A    between atoms: C_7  and  C_9
REMARK                            x       y       z     vdW  Elec       q    Type
REMARK                         _______ _______ _______ _____ _____    ______ ____
ROOT
ATOM      1  C   UNL     1      44.156  79.731  38.850  0.00  0.00    +0.117 C 
ENDROOT
BRANCH   1   2
ATOM      2  C   UNL     1      43.647  78.494  39.497  0.00  0.00    +0.318 C 
ATOM      3  O   UNL     1      44.095  78.132  40.610  0.00  0.00    -0.250 OA
BRANCH   2   5
ATOM      4  C   UNL     1      42.312  76.481  39.524  0.00  0.00    +0.256 C 
ATOM      5  O   UNL     1      42.674  77.702  38.908  0.00  0.00    -0.444 OA
ENDBRANCH   2   5
ENDBRANCH   1   2
BRANCH   1   6
ATOM      6  C   UNL     1      45.223  80.332  39.721  0.00  0.00    +0.078 C 
BRANCH   6   7
ATOM      7  C   UNL     1      45.755  81.604  39.188  0.00  0.00    +0.170 C 
ATOM      8  O   UNL     1      45.256  82.059  38.188  0.00  0.00    -0.294 OA
BRANCH   7   9
ATOM      9  C   UNL     1      46.869  82.238  39.918  0.00  0.00    +0.173 C 
ATOM     10  N   UNL     1      47.480  83.327  39.198  0.00  0.00    -0.123 NA
ENDBRANCH   7   9
ENDBRANCH   6   7
ENDBRANCH   1   6
TORSDOF 5
