REMARK  Name = Methazolamide
REMARK  2 active torsions:
REMARK  status: ('A' for Active; 'I' for Inactive)
REMARK    1  A    between atoms: C_2  and  N_4
REMARK    2  A    between atoms: C_8  and  S_10
REMARK                            x       y       z     vdW  Elec       q    Type
REMARK                         _______ _______ _______ _____ _____    ______ ____
ROOT
ATOM      1  N   UNL     1      45.492  80.815  39.390  0.00  0.00    -0.154 NA
ATOM      2  C   UNL     1      45.016  79.740  39.922  0.00  0.00    +0.186 A 
ATOM      3  N   UNL     1      44.034  78.922  39.536  0.00  0.00    -0.227 N 
ATOM      4  N   UNL     1      43.766  77.912  40.264  0.00  0.00    -0.140 NA
ATOM      5  C   UNL     1      44.425  77.666  41.364  0.00  0.00    +0.257 A 
ATOM      6  S   UNL     1      45.527  78.967  41.391  0.00  0.00    -0.011 S 
ATOM      7  C   UNL     1      43.276  79.195  38.283  0.00  0.00    +0.156 C 
ENDROOT
BRANCH   5   8
ATOM      8  S   UNL     1      44.231  76.336  42.526  0.00  0.00    +0.118 S 
ATOM      9  O   UNL     1      43.011  76.599  43.331  0.00  0.00    -0.148 OA
ATOM     10  O   UNL     1      45.419  76.374  43.418  0.00  0.00    -0.148 OA
ATOM     11  N   UNL     1      44.066  74.845  41.694  0.00  0.00    +0.041 NA
ENDBRANCH   5   8
BRANCH   1  13
ATOM     12  C   UNL     1      46.901  82.857  39.055  0.00  0.00    +0.097 C 
ATOM     13  C   UNL     1      46.480  81.658  39.855  0.00  0.00    +0.248 C 
ATOM     14  O   UNL     1      47.103  81.515  40.947  0.00  0.00    -0.273 OA
ENDBRANCH   1  13
TORSDOF 2
