REMARK  Name = Methscopolamine_Bromide
REMARK  5 active torsions:
REMARK  status: ('A' for Active; 'I' for Inactive)
REMARK    1  A    between atoms: C_5  and  O_11
REMARK    2  A    between atoms: O_11  and  C_12
REMARK    3  A    between atoms: C_12  and  C_14
REMARK    4  A    between atoms: C_14  and  C_15
REMARK    5  A    between atoms: C_14  and  C_17
REMARK                            x       y       z     vdW  Elec       q    Type
REMARK                         _______ _______ _______ _____ _____    ______ ____
ROOT
ATOM      1  O   UNL     1      46.968  80.349  41.603  0.00  0.00    -0.452 OA
ENDROOT
BRANCH   1   6
ATOM      2  C   UNL     1      43.326  77.146  39.078  0.00  0.00    -0.095 C 
ATOM      3  N   UNL     1      44.351  77.817  39.833  0.00  0.00    +0.393 N 
ATOM      4  C   UNL     1      45.084  78.671  38.943  0.00  0.00    -0.020 C 
ATOM      5  C   UNL     1      46.201  79.415  39.596  0.00  0.00    +0.026 C 
ATOM      6  C   UNL     1      45.800  80.203  40.812  0.00  0.00    +0.165 C 
ATOM      7  C   UNL     1      44.693  79.516  41.568  0.00  0.00    +0.026 C 
ATOM      8  C   UNL     1      43.718  78.791  40.698  0.00  0.00    -0.020 C 
ATOM      9  C   UNL     1      43.050  79.689  39.684  0.00  0.00    +0.122 C 
ATOM     10  C   UNL     1      43.976  79.602  38.462  0.00  0.00    +0.122 C 
ATOM     11  O   UNL     1      43.704  80.757  39.140  0.00  0.00    -0.358 OA
ATOM     12  C   UNL     1      45.131  76.850  40.522  0.00  0.00    -0.095 C 
ENDBRANCH   1   6
BRANCH   1  13
ATOM     13  C   UNL     1      47.541  81.565  41.909  0.00  0.00    +0.323 C 
ATOM     14  O   UNL     1      46.947  82.587  41.428  0.00  0.00    -0.250 OA
BRANCH  13  15
ATOM     15  C   UNL     1      48.751  81.705  42.730  0.00  0.00    +0.154 C 
BRANCH  15  16
ATOM     16  C   UNL     1      49.137  83.113  42.893  0.00  0.00    -0.009 A 
ATOM     17  C   UNL     1      49.360  83.972  41.843  0.00  0.00    -0.004 A 
ATOM     18  C   UNL     1      49.723  85.282  42.061  0.00  0.00    -0.000 A 
ATOM     19  C   UNL     1      49.879  85.791  43.335  0.00  0.00    -0.000 A 
ATOM     20  C   UNL     1      49.657  84.938  44.394  0.00  0.00    -0.000 A 
ATOM     21  C   UNL     1      49.292  83.620  44.165  0.00  0.00    -0.004 A 
ENDBRANCH  15  16
BRANCH  15  22
ATOM     22  C   UNL     1      49.953  80.973  42.117  0.00  0.00    +0.198 C 
ATOM     23  O   UNL     1      50.192  81.518  40.863  0.00  0.00    -0.219 OA
ENDBRANCH  15  22
ENDBRANCH  13  15
ENDBRANCH   1  13
TORSDOF 5
REMARK  Name = Methscopolamine_Bromide
REMARK  5 active torsions:
REMARK  status: ('A' for Active; 'I' for Inactive)
REMARK    1  A    between atoms: C_5  and  O_11
REMARK    2  A    between atoms: O_11  and  C_12
REMARK    3  A    between atoms: C_12  and  C_14
REMARK    4  A    between atoms: C_14  and  C_15
REMARK    5  A    between atoms: C_14  and  C_17
REMARK                            x       y       z     vdW  Elec       q    Type
REMARK                         _______ _______ _______ _____ _____    ______ ____
ROOT
ATOM      1 BR   UNL     1      46.666  80.573  41.008  0.00  0.00    +0.000 Br
ENDROOT
TORSDOF 0
