REMARK  Name = Methsuximide
REMARK  1 active torsions:
REMARK  status: ('A' for Active; 'I' for Inactive)
REMARK    1  A    between atoms: C_2  and  C_10
REMARK                            x       y       z     vdW  Elec       q    Type
REMARK                         _______ _______ _______ _____ _____    ______ ____
ROOT
ATOM      1  C   UNL     1      49.327  80.822  40.791  0.00  0.00    +0.014 C 
ATOM      2  C   UNL     1      48.058  81.605  40.837  0.00  0.00    +0.097 C 
ATOM      3  C   UNL     1      47.773  82.166  39.463  0.00  0.00    +0.098 C 
ATOM      4  C   UNL     1      46.331  81.963  39.226  0.00  0.00    +0.232 C 
ATOM      5  O   UNL     1      45.670  82.572  38.350  0.00  0.00    -0.274 OA
ATOM      6  N   UNL     1      45.864  80.990  40.140  0.00  0.00    -0.228 N 
ATOM      7  C   UNL     1      46.903  80.718  41.081  0.00  0.00    +0.235 C 
ATOM      8  O   UNL     1      46.835  79.841  41.988  0.00  0.00    -0.274 OA
ATOM      9  C   UNL     1      44.536  80.404  40.079  0.00  0.00    +0.123 C 
ENDROOT
BRANCH   2  10
ATOM     10  C   UNL     1      48.041  82.700  41.805  0.00  0.00    -0.014 A 
ATOM     11  C   UNL     1      46.915  83.254  42.341  0.00  0.00    -0.004 A 
ATOM     12  C   UNL     1      47.022  84.288  43.251  0.00  0.00    -0.000 A 
ATOM     13  C   UNL     1      48.244  84.788  43.643  0.00  0.00    -0.000 A 
ATOM     14  C   UNL     1      49.382  84.228  43.103  0.00  0.00    -0.000 A 
ATOM     15  C   UNL     1      49.286  83.202  42.200  0.00  0.00    -0.004 A 
ENDBRANCH   2  10
TORSDOF 1
