REMARK  Name = Methysergide
REMARK  4 active torsions:
REMARK  status: ('A' for Active; 'I' for Inactive)
REMARK    1  A    between atoms: C_2  and  CA_3
REMARK    2  A    between atoms: CA_3  and  C_4
REMARK    3  A    between atoms: CA_3  and  N_6
REMARK    4  A    between atoms: C_7  and  C_9
REMARK                            x       y       z     vdW  Elec       q    Type
REMARK                         _______ _______ _______ _____ _____    ______ ____
ROOT
ATOM      1  C   UNL     1      46.687  81.514  41.437  0.00  0.00    +0.116 C 
ATOM      2  C   UNL     1      46.620  82.204  40.106  0.00  0.00    +0.086 C 
ATOM      3  N   UNL     1      46.082  81.386  39.066  0.00  0.00    -0.268 NA
ATOM      4  C   UNL     1      44.745  80.958  39.506  0.00  0.00    +0.084 C 
ATOM      5  C   UNL     1      43.889  80.560  38.388  0.00  0.00    +0.048 C 
ATOM      6  C   UNL     1      43.188  79.286  38.507  0.00  0.00    -0.002 A 
ATOM      7  C   UNL     1      42.226  78.620  37.708  0.00  0.00    +0.072 A 
ATOM      8  N   UNL     1      41.906  77.444  38.279  0.00  0.00    -0.324 N 
ATOM      9  C   UNL     1      42.635  77.341  39.417  0.00  0.00    +0.060 A 
ATOM     10  C   UNL     1      42.779  76.413  40.439  0.00  0.00    +0.017 A 
ATOM     11  C   UNL     1      43.647  76.630  41.500  0.00  0.00    +0.001 A 
ATOM     12  C   UNL     1      44.422  77.803  41.588  0.00  0.00    -0.000 A 
ATOM     13  C   UNL     1      44.274  78.714  40.575  0.00  0.00    -0.002 A 
ATOM     14  C   UNL     1      43.409  78.461  39.548  0.00  0.00    +0.013 A 
ATOM     15  C   UNL     1      45.036  79.972  40.573  0.00  0.00    -0.011 C 
ATOM     16  C   UNL     1      45.942  80.238  41.470  0.00  0.00    -0.019 C 
ATOM     17  C   UNL     1      40.971  76.460  37.797  0.00  0.00    +0.130 C 
ATOM     18  C   UNL     1      46.036  82.076  37.818  0.00  0.00    +0.090 C 
ENDROOT
BRANCH   1  20
ATOM     19  N   UNL     1      49.136  82.196  41.752  0.00  0.00    -0.204 NA
ATOM     20  C   UNL     1      48.083  81.269  41.893  0.00  0.00    +0.246 C 
ATOM     21  O   UNL     1      48.388  80.161  42.452  0.00  0.00    -0.273 OA
BRANCH  19  22
ATOM     22  CA  UNL     1      50.187  82.362  42.748  0.00  0.00    +0.128 C 
BRANCH  22  24
ATOM     23  C   UNL     1      48.993  84.492  43.142  0.00  0.00    +0.002 C 
ATOM     24  C   UNL     1      49.848  83.412  43.749  0.00  0.00    +0.024 C 
ENDBRANCH  22  24
BRANCH  22  25
ATOM     25  C   UNL     1      51.516  82.625  42.129  0.00  0.00    +0.204 C 
ATOM     26  O   UNL     1      52.524  82.505  43.060  0.00  0.00    -0.219 OA
ENDBRANCH  22  25
ENDBRANCH  19  22
ENDBRANCH   1  20
TORSDOF 4
