REMARK  Name = Methylphenobarbital
REMARK  2 active torsions:
REMARK  status: ('A' for Active; 'I' for Inactive)
REMARK    1  A    between atoms: C_2  and  C_3
REMARK    2  A    between atoms: C_3  and  C_13
REMARK                            x       y       z     vdW  Elec       q    Type
REMARK                         _______ _______ _______ _____ _____    ______ ____
ROOT
ATOM      1  C   UNL     1      47.835  82.199  40.736  0.00  0.00    +0.159 C 
ATOM      2  C   UNL     1      47.362  83.135  39.696  0.00  0.00    +0.260 C 
ATOM      3  O   UNL     1      47.519  84.378  39.706  0.00  0.00    -0.272 OA
ATOM      4  N   UNL     1      46.671  82.575  38.591  0.00  0.00    -0.126 NA
ATOM      5  C   UNL     1      45.941  81.341  38.713  0.00  0.00    +0.336 C 
ATOM      6  O   UNL     1      45.327  80.828  37.761  0.00  0.00    -0.250 OA
ATOM      7  N   UNL     1      45.965  80.738  40.002  0.00  0.00    -0.210 N 
ATOM      8  C   UNL     1      46.668  81.325  41.089  0.00  0.00    +0.244 C 
ATOM      9  O   UNL     1      46.328  81.122  42.282  0.00  0.00    -0.274 OA
ATOM     10  C   UNL     1      45.248  79.478  40.227  0.00  0.00    +0.124 C 
ENDROOT
BRANCH   1  11
ATOM     11  C   UNL     1      48.280  82.841  41.961  0.00  0.00    -0.006 A 
ATOM     12  C   UNL     1      47.547  83.878  42.480  0.00  0.00    -0.003 A 
ATOM     13  C   UNL     1      47.956  84.517  43.658  0.00  0.00    -0.000 A 
ATOM     14  C   UNL     1      49.096  84.121  44.316  0.00  0.00    -0.000 A 
ATOM     15  C   UNL     1      49.844  83.083  43.811  0.00  0.00    -0.000 A 
ATOM     16  C   UNL     1      49.425  82.473  42.658  0.00  0.00    -0.003 A 
ENDBRANCH   1  11
BRANCH   1  18
ATOM     17  C   UNL     1      50.153  82.067  39.802  0.00  0.00    +0.001 C 
ATOM     18  C   UNL     1      48.873  81.319  40.126  0.00  0.00    +0.022 C 
ENDBRANCH   1  18
TORSDOF 2
