REMARK  Name = Methadyl_Acetate
REMARK  9 active torsions:
REMARK  status: ('A' for Active; 'I' for Inactive)
REMARK    1  A    between atoms: C_2  and  C_3
REMARK    2  A    between atoms: C_3  and  C_4
REMARK    3  A    between atoms: C_3  and  O_23
REMARK    4  A    between atoms: C_4  and  C_5
REMARK    5  A    between atoms: C_4  and  C_11
REMARK    6  A    between atoms: C_4  and  C_17
REMARK    7  A    between atoms: C_5  and  C_6
REMARK    8  A    between atoms: C_6  and  N_8
REMARK    9  A    between atoms: O_23  and  C_24
REMARK                            x       y       z     vdW  Elec       q    Type
REMARK                         _______ _______ _______ _____ _____    ______ ____
ROOT
ATOM      1  C   UNL     1      48.088  80.728  41.753  0.00  0.00    +0.076 C 
ENDROOT
BRANCH   1   2
ATOM      2  C   UNL     1      47.477  81.295  40.444  0.00  0.00    -0.016 A 
ATOM      3  C   UNL     1      46.534  80.660  39.713  0.00  0.00    -0.004 A 
ATOM      4  C   UNL     1      45.999  81.209  38.546  0.00  0.00    -0.000 A 
ATOM      5  C   UNL     1      46.437  82.429  38.122  0.00  0.00    -0.000 A 
ATOM      6  C   UNL     1      47.393  83.100  38.842  0.00  0.00    -0.000 A 
ATOM      7  C   UNL     1      47.904  82.536  39.988  0.00  0.00    -0.004 A 
ENDBRANCH   1   2
BRANCH   1   8
ATOM      8  C   UNL     1      48.178  82.022  42.553  0.00  0.00    -0.016 A 
ATOM      9  C   UNL     1      47.511  83.091  42.018  0.00  0.00    -0.004 A 
ATOM     10  C   UNL     1      47.477  84.332  42.628  0.00  0.00    -0.000 A 
ATOM     11  C   UNL     1      48.161  84.433  43.822  0.00  0.00    -0.000 A 
ATOM     12  C   UNL     1      48.835  83.376  44.376  0.00  0.00    -0.000 A 
ATOM     13  C   UNL     1      48.843  82.144  43.725  0.00  0.00    -0.004 A 
ENDBRANCH   1   8
BRANCH   1  14
ATOM     14  C   UNL     1      49.330  80.154  41.325  0.00  0.00    +0.176 C 
BRANCH  14  16
ATOM     15  C   UNL     1      51.058  78.457  40.539  0.00  0.00    +0.004 C 
ATOM     16  C   UNL     1      49.699  79.083  40.433  0.00  0.00    +0.044 C 
ENDBRANCH  14  16
BRANCH  14  17
ATOM     17  O   UNL     1      50.119  81.306  40.818  0.00  0.00    -0.452 OA
BRANCH  17  18
ATOM     18  C   UNL     1      51.127  81.879  41.525  0.00  0.00    +0.317 C 
ATOM     19  O   UNL     1      51.479  81.439  42.638  0.00  0.00    -0.250 OA
ATOM     20  C   UNL     1      51.821  83.072  40.929  0.00  0.00    +0.121 C 
ENDBRANCH  17  18
ENDBRANCH  14  17
ENDBRANCH   1  14
BRANCH   1  21
ATOM     21  C   UNL     1      46.991  79.968  42.397  0.00  0.00    +0.028 C 
BRANCH  21  22
ATOM     22  C   UNL     1      45.751  79.629  41.691  0.00  0.00    +0.058 C 
ATOM     23  C   UNL     1      44.736  79.233  42.836  0.00  0.00    +0.017 C 
BRANCH  22  24
ATOM     24  N   UNL     1      45.829  78.461  40.802  0.00  0.00    -0.272 NA
ATOM     25  C   UNL     1      46.300  77.278  41.450  0.00  0.00    +0.090 C 
ATOM     26  C   UNL     1      44.463  78.201  40.369  0.00  0.00    +0.090 C 
ENDBRANCH  22  24
ENDBRANCH  21  22
ENDBRANCH   1  21
TORSDOF 9
