REMARK  Name = Methotrexate
REMARK  9 active torsions:
REMARK  status: ('A' for Active; 'I' for Inactive)
REMARK    1  A    between atoms: N_2  and  C_3
REMARK    2  A    between atoms: N_2  and  C_16
REMARK    3  A    between atoms: C_3  and  C_4
REMARK    4  A    between atoms: C_19  and  C_22
REMARK    5  A    between atoms: N_24  and  CA_25
REMARK    6  A    between atoms: CA_25  and  CB_26
REMARK    7  A    between atoms: CA_25  and  C_31
REMARK    8  A    between atoms: CB_26  and  CG_27
REMARK    9  A    between atoms: CG_27  and  CD_28
REMARK                            x       y       z     vdW  Elec       q    Type
REMARK                         _______ _______ _______ _____ _____    ______ ____
ROOT
ATOM      1  C   UNK A   0      50.254  81.632  43.768  0.00  0.00    +0.048 A 
ATOM      2  C   UNK A   0      51.403  82.410  43.720  0.00  0.00    +0.015 A 
ATOM      3  C   UNK A   0      52.416  82.282  44.639  0.00  0.00    +0.006 A 
ATOM      4  C   UNK A   0      52.278  81.330  45.657  0.00  0.00    +0.055 A 
ATOM      5  C   UNK A   0      51.137  80.574  45.685  0.00  0.00    +0.006 A 
ATOM      6  C   UNK A   0      50.113  80.704  44.755  0.00  0.00    +0.015 A 
ENDROOT
BRANCH   4   7
ATOM      7  C   UNK A   0      53.363  81.206  46.631  0.00  0.00    +0.265 C 
ATOM      8  O   UNK A   0      54.493  81.730  46.424  0.00  0.00    -0.268 OA
ATOM      9  N   GLU A   1      53.190  80.505  47.817  0.00  0.00    -0.192 NA
BRANCH   9  10
ATOM     10  CA  GLU A   1      54.285  80.390  48.834  0.00  0.00    +0.199 C 
BRANCH  10  11
ATOM     11  C   GLU A   1      53.809  79.460  49.840  0.00  0.00    +0.384 C 
ATOM     12  O   GLU A   1      52.587  79.194  49.941  0.00  0.00    -0.244 OA
ATOM     13  OXT GLU A   1      54.664  78.829  50.727  0.00  0.00    -0.244 OA
ENDBRANCH  10  11
BRANCH  10  14
ATOM     14  CB  GLU A   1      54.557  81.805  49.201  0.00  0.00    +0.045 C 
BRANCH  14  15
ATOM     15  CG  GLU A   1      55.936  82.245  49.453  0.00  0.00    +0.116 C 
BRANCH  15  16
ATOM     16  CD  GLU A   1      56.190  83.646  49.754  0.00  0.00    +0.365 C 
ATOM     17  OE1 GLU A   1      57.308  84.196  49.680  0.00  0.00    -0.246 OA
ATOM     18  OE2 GLU A   1      55.112  84.436  50.152  0.00  0.00    -0.246 OA
ENDBRANCH  15  16
ENDBRANCH  14  15
ENDBRANCH  10  14
ENDBRANCH   9  10
ENDBRANCH   4   7
BRANCH   1  20
ATOM     19  C   UNK A   0      49.671  81.994  41.368  0.00  0.00    +0.113 C 
ATOM     20  N   UNK A   0      49.266  81.831  42.776  0.00  0.00    -0.301 N 
BRANCH  20  21
ATOM     21  C   UNK A   0      47.871  81.886  43.135  0.00  0.00    +0.139 C 
BRANCH  21  22
ATOM     22  C   UNK A   0      47.046  81.335  42.041  0.00  0.00    +0.098 A 
ATOM     23  C   UNK A   0      46.524  80.073  42.143  0.00  0.00    +0.117 A 
ATOM     24  N   UNK A   0      45.779  79.545  41.127  0.00  0.00    -0.222 NA
ATOM     25  C   UNK A   0      45.562  80.281  40.020  0.00  0.00    +0.186 A 
ATOM     26  C   UNK A   0      46.089  81.550  39.926  0.00  0.00    +0.151 A 
ATOM     27  N   UNK A   0      46.824  82.064  40.934  0.00  0.00    -0.240 NA
ATOM     28  C   UNK A   0      45.883  82.338  38.789  0.00  0.00    +0.193 A 
ATOM     29  N   UNK A   0      45.153  81.798  37.808  0.00  0.00    -0.191 NA
ATOM     30  C   UNK A   0      44.632  80.554  37.892  0.00  0.00    +0.259 A 
ATOM     31  N   UNK A   0      44.831  79.800  38.983  0.00  0.00    -0.190 NA
ATOM     32  N   UNK A   0      43.859  80.002  36.828  0.00  0.00    -0.086 NA
ATOM     33  N   UNK A   0      46.411  83.636  38.670  0.00  0.00    -0.105 NA
ENDBRANCH  21  22
ENDBRANCH  20  21
ENDBRANCH   1  20
TORSDOF 9
