REMARK  Name = Meticillin
REMARK  5 active torsions:
REMARK  status: ('A' for Active; 'I' for Inactive)
REMARK    1  A    between atoms: CA_3  and  C_23
REMARK    2  A    between atoms: CA_7  and  N_10
REMARK    3  A    between atoms: C_11  and  C_13
REMARK    4  A    between atoms: C_14  and  O_21
REMARK    5  A    between atoms: C_18  and  O_19
REMARK                            x       y       z     vdW  Elec       q    Type
REMARK                         _______ _______ _______ _____ _____    ______ ____
ROOT
ATOM      1  C   UNL     1      49.724  84.186  41.863  0.00  0.00    +0.013 C 
ATOM      2  C   UNL     1      49.680  83.531  43.216  0.00  0.00    +0.068 C 
ATOM      3  CA  UNL     1      50.414  82.233  43.230  0.00  0.00    +0.189 C 
ATOM      4  N   UNL     1      49.717  81.243  42.540  0.00  0.00    -0.259 N 
ATOM      5  C   UNL     1      48.307  81.544  42.219  0.00  0.00    +0.153 C 
ATOM      6  S   UNL     1      47.963  82.871  43.400  0.00  0.00    -0.118 S 
ATOM      7  CA  UNL     1      48.103  80.139  42.631  0.00  0.00    +0.200 C 
ATOM      8  C   UNL     1      49.423  80.028  41.885  0.00  0.00    +0.249 C 
ATOM      9  O   UNL     1      49.928  79.219  41.090  0.00  0.00    -0.273 OA
ATOM     10  C   UNL     1      49.991  84.445  44.342  0.00  0.00    +0.013 C 
ENDROOT
BRANCH   7  11
ATOM     11  N   UNL     1      47.029  79.409  41.980  0.00  0.00    -0.191 NA
ATOM     12  C   UNL     1      46.075  80.131  41.267  0.00  0.00    +0.271 C 
ATOM     13  O   UNL     1      46.011  81.387  41.515  0.00  0.00    -0.268 OA
BRANCH  12  14
ATOM     14  C   UNL     1      45.164  79.597  40.288  0.00  0.00    +0.123 A 
ATOM     15  C   UNL     1      44.296  78.577  40.686  0.00  0.00    +0.146 A 
ATOM     16  C   UNL     1      43.424  78.041  39.800  0.00  0.00    +0.037 A 
ATOM     17  C   UNL     1      43.397  78.502  38.522  0.00  0.00    +0.006 A 
ATOM     18  C   UNL     1      44.230  79.494  38.108  0.00  0.00    +0.037 A 
ATOM     19  C   UNL     1      45.145  80.069  39.003  0.00  0.00    +0.146 A 
BRANCH  19  20
ATOM     20  O   UNL     1      45.973  81.081  38.521  0.00  0.00    -0.471 OA
ATOM     21  C   UNL     1      45.532  82.375  38.255  0.00  0.00    +0.252 C 
ENDBRANCH  19  20
BRANCH  15  22
ATOM     22  O   UNL     1      44.338  78.125  41.980  0.00  0.00    -0.471 OA
ATOM     23  C   UNL     1      43.598  77.013  42.431  0.00  0.00    +0.252 C 
ENDBRANCH  15  22
ENDBRANCH  12  14
ENDBRANCH   7  11
BRANCH   3  24
ATOM     24  C   UNL     1      51.782  82.355  42.660  0.00  0.00    +0.383 C 
ATOM     25  O   UNL     1      51.974  82.028  41.475  0.00  0.00    -0.244 OA
ATOM     26  OXT UNL     1      52.828  82.820  43.420  0.00  0.00    -0.244 OA
ENDBRANCH   3  24
TORSDOF 5
