REMARK  Name = Metipranolol
REMARK  8 active torsions:
REMARK  status: ('A' for Active; 'I' for Inactive)
REMARK    1  A    between atoms: C_4  and  O_14
REMARK    2  A    between atoms: C_7  and  O_8
REMARK    3  A    between atoms: O_8  and  C_9
REMARK    4  A    between atoms: O_14  and  C_15
REMARK    5  A    between atoms: C_15  and  C_16
REMARK    6  A    between atoms: C_16  and  C_17
REMARK    7  A    between atoms: C_17  and  N_18
REMARK    8  A    between atoms: N_18  and  C_19
REMARK                            x       y       z     vdW  Elec       q    Type
REMARK                         _______ _______ _______ _____ _____    ______ ____
ROOT
ATOM      1  C   UNL     1      41.193  77.864  37.294  0.00  0.00    +0.034 C 
ATOM      2  C   UNL     1      42.235  77.948  38.349  0.00  0.00    +0.015 A 
ATOM      3  C   UNL     1      43.117  79.027  38.401  0.00  0.00    +0.035 A 
ATOM      4  C   UNL     1      44.084  79.107  39.379  0.00  0.00    +0.134 A 
ATOM      5  C   UNL     1      44.152  78.090  40.302  0.00  0.00    +0.011 A 
ATOM      6  C   UNL     1      43.301  77.002  40.292  0.00  0.00    +0.011 A 
ATOM      7  C   UNL     1      42.334  76.941  39.298  0.00  0.00    +0.140 A 
ATOM      8  C   UNL     1      43.407  75.920  41.310  0.00  0.00    +0.034 C 
ATOM      9  C   UNL     1      45.192  78.182  41.349  0.00  0.00    +0.034 C 
ENDROOT
BRANCH   7  10
ATOM     10  O   UNL     1      41.458  75.844  39.267  0.00  0.00    -0.425 OA
BRANCH  10  11
ATOM     11  C   UNL     1      40.177  75.908  39.796  0.00  0.00    +0.322 C 
ATOM     12  O   UNL     1      39.873  76.934  40.454  0.00  0.00    -0.250 OA
ATOM     13  C   UNL     1      39.152  74.854  39.638  0.00  0.00    +0.122 C 
ENDBRANCH  10  11
ENDBRANCH   7  10
BRANCH   4  14
ATOM     14  O   UNL     1      44.941  80.169  39.418  0.00  0.00    -0.473 OA
BRANCH  14  15
ATOM     15  C   UNL     1      45.729  80.651  38.383  0.00  0.00    +0.239 C 
BRANCH  15  16
ATOM     16  C   UNL     1      46.428  81.900  38.861  0.00  0.00    +0.213 C 
ATOM     17  O   UNL     1      45.607  83.012  38.849  0.00  0.00    -0.218 OA
BRANCH  16  18
ATOM     18  C   UNL     1      47.089  81.724  40.199  0.00  0.00    +0.125 C 
BRANCH  18  19
ATOM     19  N   UNL     1      47.801  82.978  40.481  0.00  0.00    -0.217 NA
BRANCH  19  20
ATOM     20  C   UNL     1      48.483  82.892  41.752  0.00  0.00    +0.073 C 
ATOM     21  C   UNL     1      48.186  84.116  42.565  0.00  0.00    +0.019 C 
ATOM     22  C   UNL     1      49.949  82.681  41.521  0.00  0.00    +0.019 C 
ENDBRANCH  19  20
ENDBRANCH  18  19
ENDBRANCH  16  18
ENDBRANCH  15  16
ENDBRANCH  14  15
ENDBRANCH   4  14
TORSDOF 8
