REMARK  Name = Metoprolol
REMARK  9 active torsions:
REMARK  status: ('A' for Active; 'I' for Inactive)
REMARK    1  A    between atoms: C_2  and  N_4
REMARK    2  A    between atoms: N_4  and  C_5
REMARK    3  A    between atoms: C_5  and  C_6
REMARK    4  A    between atoms: C_6  and  C_7
REMARK    5  A    between atoms: C_7  and  O_8
REMARK    6  A    between atoms: O_8  and  C_9
REMARK    7  A    between atoms: C_12  and  C_15
REMARK    8  A    between atoms: C_15  and  C_16
REMARK    9  A    between atoms: C_16  and  O_17
REMARK                            x       y       z     vdW  Elec       q    Type
REMARK                         _______ _______ _______ _____ _____    ______ ____
ROOT
ATOM      1  C   UNL     1      43.844  79.112  39.258  0.00  0.00    +0.139 A 
ATOM      2  C   UNL     1      42.773  79.327  38.348  0.00  0.00    +0.037 A 
ATOM      3  C   UNL     1      41.764  78.429  38.204  0.00  0.00    -0.001 A 
ATOM      4  C   UNL     1      41.739  77.251  38.950  0.00  0.00    -0.019 A 
ATOM      5  C   UNL     1      42.758  77.014  39.840  0.00  0.00    -0.001 A 
ATOM      6  C   UNL     1      43.798  77.942  39.987  0.00  0.00    +0.037 A 
ENDROOT
BRANCH   1   7
ATOM      7  O   UNL     1      44.807  80.042  39.356  0.00  0.00    -0.473 OA
BRANCH   7   8
ATOM      8  C   UNL     1      44.992  81.274  38.845  0.00  0.00    +0.240 C 
BRANCH   8   9
ATOM      9  C   UNL     1      46.400  81.803  38.891  0.00  0.00    +0.213 C 
ATOM     10  O   UNL     1      46.612  83.020  38.345  0.00  0.00    -0.218 OA
BRANCH   9  11
ATOM     11  C   UNL     1      46.786  81.778  40.390  0.00  0.00    +0.125 C 
BRANCH  11  12
ATOM     12  N   UNL     1      48.190  82.078  40.441  0.00  0.00    -0.217 NA
BRANCH  12  14
ATOM     13  C   UNL     1      49.955  83.122  41.652  0.00  0.00    +0.019 C 
ATOM     14  C   UNL     1      48.505  83.255  41.188  0.00  0.00    +0.073 C 
ATOM     15  C   UNL     1      47.612  83.292  42.410  0.00  0.00    +0.019 C 
ENDBRANCH  12  14
ENDBRANCH  11  12
ENDBRANCH   9  11
ENDBRANCH   8   9
ENDBRANCH   7   8
ENDBRANCH   1   7
BRANCH   4  16
ATOM     16  C   UNL     1      40.654  76.247  38.820  0.00  0.00    +0.058 C 
BRANCH  16  17
ATOM     17  C   UNL     1      40.383  75.966  37.358  0.00  0.00    +0.147 C 
BRANCH  17  18
ATOM     18  O   UNL     1      40.511  74.607  37.074  0.00  0.00    -0.351 OA
ATOM     19  C   UNL     1      39.383  74.088  36.471  0.00  0.00    +0.174 C 
ENDBRANCH  17  18
ENDBRANCH  16  17
ENDBRANCH   4  16
TORSDOF 9
