REMARK  Name = Metolazone
REMARK  2 active torsions:
REMARK  status: ('A' for Active; 'I' for Inactive)
REMARK    1  A    between atoms: C_7  and  S_20
REMARK    2  A    between atoms: N_12  and  C_13
REMARK                            x       y       z     vdW  Elec       q    Type
REMARK                         _______ _______ _______ _____ _____    ______ ____
ROOT
ATOM      1  C   UNL     1      45.893  83.668  40.216  0.00  0.00    +0.046 C 
ATOM      2  C   UNL     1      47.133  82.867  39.802  0.00  0.00    +0.173 C 
ATOM      3  N   UNL     1      46.678  81.859  38.883  0.00  0.00    -0.219 NA
ATOM      4  C   UNL     1      45.964  80.745  39.381  0.00  0.00    +0.072 A 
ATOM      5  C   UNL     1      45.102  80.002  38.602  0.00  0.00    +0.029 A 
ATOM      6  C   UNL     1      44.409  78.914  39.105  0.00  0.00    +0.078 A 
ATOM      7  C   UNL     1      44.566  78.540  40.418  0.00  0.00    +0.136 A 
ATOM      8  C   UNL     1      45.418  79.266  41.207  0.00  0.00    +0.027 A 
ATOM      9  C   UNL     1      46.100  80.338  40.711  0.00  0.00    +0.070 A 
ATOM     10  C   UNL     1      47.013  81.127  41.528  0.00  0.00    +0.255 C 
ATOM     11  O   UNL     1      47.179  80.809  42.741  0.00  0.00    -0.269 OA
ATOM     12  N   UNL     1      47.697  82.233  40.954  0.00  0.00    -0.239 N 
ATOM     13 CL   UNL     1      43.346  78.038  38.052  0.00  0.00    -0.081 Cl
ENDROOT
BRANCH  12  14
ATOM     14  C   UNL     1      48.920  82.654  41.563  0.00  0.00    +0.052 A 
ATOM     15  C   UNL     1      50.136  82.130  41.160  0.00  0.00    +0.015 A 
ATOM     16  C   UNL     1      51.313  82.555  41.767  0.00  0.00    +0.001 A 
ATOM     17  C   UNL     1      51.256  83.493  42.763  0.00  0.00    -0.000 A 
ATOM     18  C   UNL     1      50.061  84.021  43.172  0.00  0.00    -0.003 A 
ATOM     19  C   UNL     1      48.891  83.604  42.574  0.00  0.00    -0.008 A 
ATOM     20  C   UNL     1      47.575  84.163  43.001  0.00  0.00    +0.032 C 
ENDBRANCH  12  14
BRANCH   7  21
ATOM     21  S   UNL     1      43.688  77.151  41.076  0.00  0.00    +0.094 S 
ATOM     22  O   UNL     1      42.249  77.349  40.764  0.00  0.00    -0.150 OA
ATOM     23  O   UNL     1      43.906  77.075  42.562  0.00  0.00    -0.150 OA
ATOM     24  N   UNL     1      44.283  75.701  40.381  0.00  0.00    +0.039 NA
ENDBRANCH   7  21
TORSDOF 2
