REMARK  Name = Metrizamide
REMARK  5 active torsions:
REMARK  status: ('A' for Active; 'I' for Inactive)
REMARK    1  A    between atoms: N_4  and  C_5
REMARK    2  A    between atoms: C_7  and  N_27
REMARK    3  A    between atoms: C_9  and  C_12
REMARK    4  A    between atoms: N_14  and  C_15
REMARK    5  A    between atoms: C_18  and  C_22
REMARK                            x       y       z     vdW  Elec       q    Type
REMARK                         _______ _______ _______ _____ _____    ______ ____
ROOT
ATOM      1  C   UNL     1      46.691  79.070  42.701  0.00  0.00    +0.085 A 
ATOM      2  C   UNL     1      47.629  80.028  42.383  0.00  0.00    +0.060 A 
ATOM      3  C   UNL     1      47.528  80.777  41.252  0.00  0.00    +0.066 A 
ATOM      4  C   UNL     1      46.440  80.555  40.404  0.00  0.00    +0.049 A 
ATOM      5  C   UNL     1      45.475  79.624  40.661  0.00  0.00    +0.068 A 
ATOM      6  C   UNL     1      45.637  78.885  41.842  0.00  0.00    +0.051 A 
ATOM      7  I   UNL     1      44.221  77.410  42.366  0.00  0.00    -0.041 I 
ATOM      8  I   UNL     1      46.335  81.660  38.604  0.00  0.00    -0.041 I 
ATOM      9  I   UNL     1      49.275  80.357  43.674  0.00  0.00    -0.040 I 
ENDROOT
BRANCH   3  10
ATOM     10  N   UNL     1      48.479  81.778  40.889  0.00  0.00    -0.256 N 
ATOM     11  C   UNL     1      49.494  81.422  39.922  0.00  0.00    +0.120 C 
ATOM     12  C   UNL     1      48.468  83.078  41.430  0.00  0.00    +0.230 C 
ATOM     13  O   UNL     1      47.524  83.461  42.157  0.00  0.00    -0.275 OA
ATOM     14  C   UNL     1      49.578  84.009  41.142  0.00  0.00    +0.095 C 
ENDBRANCH   3  10
BRANCH   1  18
ATOM     15  C   UNL     1      47.501  76.278  45.211  0.00  0.00    +0.097 C 
ATOM     16  C   UNL     1      47.389  76.998  43.918  0.00  0.00    +0.246 C 
ATOM     17  O   UNL     1      47.784  76.474  42.858  0.00  0.00    -0.273 OA
ATOM     18  N   UNL     1      46.825  78.303  43.890  0.00  0.00    -0.178 NA
ENDBRANCH   1  18
BRANCH   5  19
ATOM     19  C   UNL     1      44.275  79.348  39.913  0.00  0.00    +0.266 C 
ATOM     20  O   UNL     1      43.495  80.351  39.674  0.00  0.00    -0.268 OA
ATOM     21  N   UNL     1      43.836  78.122  39.398  0.00  0.00    -0.195 NA
BRANCH  21  22
ATOM     22  C   UNL     1      42.442  77.946  39.029  0.00  0.00    +0.187 C 
ATOM     23  C   UNL     1      42.208  78.347  37.582  0.00  0.00    +0.210 C 
ATOM     24  C   UNL     1      40.725  78.061  37.310  0.00  0.00    +0.214 C 
ATOM     25  C   UNL     1      40.573  76.549  37.492  0.00  0.00    +0.184 C 
ATOM     26  O   UNL     1      40.803  76.199  38.797  0.00  0.00    -0.324 OA
ATOM     27  C   UNL     1      42.053  76.507  39.275  0.00  0.00    +0.292 C 
ATOM     28  O   UNL     1      42.014  76.346  40.676  0.00  0.00    -0.188 OA
ATOM     29  O   UNL     1      40.339  78.470  36.057  0.00  0.00    -0.218 OA
ATOM     30  O   UNL     1      42.475  79.710  37.481  0.00  0.00    -0.218 OA
BRANCH  25  31
ATOM     31  C   UNL     1      39.099  76.248  37.199  0.00  0.00    +0.214 C 
ATOM     32  O   UNL     1      39.003  75.094  36.396  0.00  0.00    -0.218 OA
ENDBRANCH  25  31
ENDBRANCH  21  22
ENDBRANCH   5  19
TORSDOF 5
