REMARK  Name = Metyrapone
REMARK  3 active torsions:
REMARK  status: ('A' for Active; 'I' for Inactive)
REMARK    1  A    between atoms: C_2  and  C_4
REMARK    2  A    between atoms: C_2  and  C_10
REMARK    3  A    between atoms: C_10  and  C_12
REMARK                            x       y       z     vdW  Elec       q    Type
REMARK                         _______ _______ _______ _____ _____    ______ ____
ROOT
ATOM      1  C   UNL     1      48.024  80.748  42.623  0.00  0.00    +0.012 C 
ATOM      2  C   UNL     1      48.170  82.166  42.131  0.00  0.00    +0.076 C 
ATOM      3  C   UNL     1      47.066  82.976  42.828  0.00  0.00    +0.012 C 
ENDROOT
BRANCH   2   4
ATOM      4  C   UNL     1      49.495  82.737  42.501  0.00  0.00    +0.003 A 
ATOM      5  C   UNL     1      50.672  82.097  42.099  0.00  0.00    +0.095 A 
ATOM      6  N   UNL     1      51.895  82.566  42.379  0.00  0.00    -0.243 NA
ATOM      7  C   UNL     1      52.038  83.719  43.088  0.00  0.00    +0.099 A 
ATOM      8  C   UNL     1      50.917  84.397  43.513  0.00  0.00    +0.020 A 
ATOM      9  C   UNL     1      49.649  83.903  43.218  0.00  0.00    -0.001 A 
ENDBRANCH   2   4
BRANCH   2  10
ATOM     10  C   UNL     1      47.959  82.260  40.680  0.00  0.00    +0.178 C 
ATOM     11  O   UNL     1      48.908  82.761  39.966  0.00  0.00    -0.291 OA
BRANCH  10  12
ATOM     12  C   UNL     1      46.788  81.847  39.941  0.00  0.00    +0.054 A 
ATOM     13  C   UNL     1      46.274  82.583  38.915  0.00  0.00    +0.102 A 
ATOM     14  N   UNL     1      45.175  82.160  38.238  0.00  0.00    -0.242 NA
ATOM     15  C   UNL     1      44.550  81.016  38.538  0.00  0.00    +0.099 A 
ATOM     16  C   UNL     1      45.044  80.250  39.568  0.00  0.00    +0.021 A 
ATOM     17  C   UNL     1      46.142  80.660  40.255  0.00  0.00    +0.006 A 
ENDBRANCH  10  12
ENDBRANCH   2  10
TORSDOF 3
