REMARK  Name = Metyrosine
REMARK  3 active torsions:
REMARK  status: ('A' for Active; 'I' for Inactive)
REMARK    1  A    between atoms: C_2  and  C_3
REMARK    2  A    between atoms: C_2  and  C_11
REMARK    3  A    between atoms: C_3  and  C_4
REMARK                            x       y       z     vdW  Elec       q    Type
REMARK                         _______ _______ _______ _____ _____    ______ ____
ROOT
ATOM      1  C   UNL     1      48.837  82.154  42.175  0.00  0.00    +0.055 C 
ENDROOT
BRANCH   1   2
ATOM      2  C   UNL     1      47.800  81.968  41.144  0.00  0.00    -0.020 A 
ATOM      3  C   UNL     1      46.789  81.030  41.257  0.00  0.00    -0.001 A 
ATOM      4  C   UNL     1      45.831  80.878  40.276  0.00  0.00    +0.042 A 
ATOM      5  C   UNL     1      45.832  81.651  39.134  0.00  0.00    +0.196 A 
ATOM      6  C   UNL     1      46.836  82.589  39.013  0.00  0.00    +0.042 A 
ATOM      7  C   UNL     1      47.795  82.739  39.998  0.00  0.00    -0.001 A 
ATOM      8  O   UNL     1      44.856  81.485  38.150  0.00  0.00    -0.287 OA
ENDBRANCH   1   2
BRANCH   1  10
ATOM      9  C   UNL     1      49.551  79.851  42.884  0.00  0.00    +0.031 C 
ATOM     10  C   UNL     1      49.913  81.093  42.126  0.00  0.00    +0.174 C 
ATOM     11  N   UNL     1      50.228  80.722  40.755  0.00  0.00    -0.123 NA
BRANCH  10  12
ATOM     12  C   UNL     1      51.124  81.674  42.767  0.00  0.00    +0.380 C 
ATOM     13  O   UNL     1      51.120  81.914  44.001  0.00  0.00    -0.244 OA
ATOM     14  O   UNL     1      52.258  81.956  42.029  0.00  0.00    -0.244 OA
ENDBRANCH  10  12
ENDBRANCH   1  10
TORSDOF 3
