REMARK  Name = Mezlocillin
REMARK  6 active torsions:
REMARK  status: ('A' for Active; 'I' for Inactive)
REMARK    1  A    between atoms: CA_3  and  C_33
REMARK    2  A    between atoms: CA_7  and  N_10
REMARK    3  A    between atoms: C_11  and  CA_13
REMARK    4  A    between atoms: CA_13  and  C_14
REMARK    5  A    between atoms: CA_13  and  N_20
REMARK    6  A    between atoms: N_26  and  S_29
REMARK                            x       y       z     vdW  Elec       q    Type
REMARK                         _______ _______ _______ _____ _____    ______ ____
ROOT
ATOM      1  CA  UNL     1      44.664  78.966  39.228  0.00  0.00    +0.196 C 
ENDROOT
BRANCH   1   2
ATOM      2  N   UNL     1      43.252  79.151  38.886  0.00  0.00    -0.176 NA
ATOM      3  C   UNL     1      42.746  78.500  37.741  0.00  0.00    +0.331 C 
ATOM      4  O   UNL     1      43.463  78.128  36.785  0.00  0.00    -0.250 OA
ATOM      5  N   UNL     1      41.352  78.249  37.660  0.00  0.00    -0.194 N 
ATOM      6  C   UNL     1      40.658  77.844  36.442  0.00  0.00    +0.128 C 
ATOM      7  C   UNL     1      39.319  77.329  36.926  0.00  0.00    +0.142 C 
ATOM      8  N   UNL     1      39.054  78.159  38.104  0.00  0.00    -0.146 N 
ATOM      9  C   UNL     1      40.354  78.335  38.679  0.00  0.00    +0.333 C 
ATOM     10  O   UNL     1      40.571  78.536  39.899  0.00  0.00    -0.250 OA
BRANCH   8  11
ATOM     11  S   UNL     1      37.547  78.784  38.646  0.00  0.00    +0.062 S 
ATOM     12  O   UNL     1      37.229  78.397  40.044  0.00  0.00    -0.154 OA
ATOM     13  O   UNL     1      37.600  80.304  38.633  0.00  0.00    -0.154 OA
ATOM     14  C   UNL     1      36.283  78.271  37.508  0.00  0.00    +0.200 C 
ENDBRANCH   8  11
ENDBRANCH   1   2
BRANCH   1  15
ATOM     15  C   UNL     1      44.621  77.895  40.294  0.00  0.00    +0.006 A 
ATOM     16  C   UNL     1      43.981  78.192  41.470  0.00  0.00    -0.002 A 
ATOM     17  C   UNL     1      43.933  77.253  42.511  0.00  0.00    -0.000 A 
ATOM     18  C   UNL     1      44.544  76.044  42.299  0.00  0.00    -0.000 A 
ATOM     19  C   UNL     1      45.191  75.727  41.127  0.00  0.00    -0.000 A 
ATOM     20  C   UNL     1      45.221  76.683  40.113  0.00  0.00    -0.002 A 
ENDBRANCH   1  15
BRANCH   1  22
ATOM     21  N   UNL     1      46.252  80.383  40.656  0.00  0.00    -0.193 NA
ATOM     22  C   UNL     1      45.201  80.222  39.709  0.00  0.00    +0.266 C 
ATOM     23  O   UNL     1      44.720  81.323  39.269  0.00  0.00    -0.271 OA
BRANCH  21  30
ATOM     24  C   UNL     1      49.566  84.832  41.740  0.00  0.00    +0.013 C 
ATOM     25  C   UNL     1      49.059  83.971  42.859  0.00  0.00    +0.068 C 
ATOM     26  CA  UNL     1      49.657  82.565  42.702  0.00  0.00    +0.189 C 
ATOM     27  N   UNL     1      48.901  81.881  41.695  0.00  0.00    -0.259 N 
ATOM     28  C   UNL     1      47.511  81.829  42.108  0.00  0.00    +0.153 C 
ATOM     29  S   UNL     1      47.287  83.554  42.631  0.00  0.00    -0.118 S 
ATOM     30  CA  UNL     1      47.092  81.540  40.688  0.00  0.00    +0.200 C 
ATOM     31  C   UNL     1      48.522  81.183  40.526  0.00  0.00    +0.249 C 
ATOM     32  O   UNL     1      49.096  80.489  39.619  0.00  0.00    -0.273 OA
ATOM     33  C   UNL     1      49.264  84.538  44.223  0.00  0.00    +0.013 C 
BRANCH  26  34
ATOM     34  C   UNL     1      51.084  82.630  42.364  0.00  0.00    +0.383 C 
ATOM     35  O   UNL     1      51.980  82.756  43.229  0.00  0.00    -0.244 OA
ATOM     36  OXT UNL     1      51.462  82.550  41.036  0.00  0.00    -0.244 OA
ENDBRANCH  26  34
ENDBRANCH  21  30
ENDBRANCH   1  22
TORSDOF 6
