REMARK  Name = Midazolam
REMARK  1 active torsions:
REMARK  status: ('A' for Active; 'I' for Inactive)
REMARK    1  A    between atoms: C_14  and  C_17
REMARK                            x       y       z     vdW  Elec       q    Type
REMARK                         _______ _______ _______ _____ _____    ______ ____
ROOT
ATOM      1  C   UNL     1      43.572  80.529  39.491  0.00  0.00    +0.072 C 
ATOM      2  C   UNL     1      44.770  81.105  38.863  0.00  0.00    +0.124 A 
ATOM      3  N   UNL     1      44.817  81.826  37.693  0.00  0.00    -0.229 NA
ATOM      4  C   UNL     1      46.058  82.269  37.454  0.00  0.00    +0.115 A 
ATOM      5  C   UNL     1      46.839  81.833  38.480  0.00  0.00    +0.086 A 
ATOM      6  N   UNL     1      46.015  81.129  39.308  0.00  0.00    -0.295 N 
ATOM      7  C   UNL     1      46.429  80.479  40.510  0.00  0.00    +0.066 A 
ATOM      8  C   UNL     1      47.416  80.991  41.356  0.00  0.00    +0.034 A 
ATOM      9  C   UNL     1      47.676  80.305  42.513  0.00  0.00    +0.014 A 
ATOM     10  C   UNL     1      46.983  79.154  42.809  0.00  0.00    +0.058 A 
ATOM     11  C   UNL     1      46.004  78.667  41.936  0.00  0.00    +0.013 A 
ATOM     12  C   UNL     1      45.712  79.345  40.744  0.00  0.00    +0.018 A 
ATOM     13 CL   UNL     1      47.317  78.277  44.292  0.00  0.00    -0.082 Cl
ATOM     14  C   UNL     1      48.291  82.160  41.142  0.00  0.00    +0.080 C 
ATOM     15  N   UNL     1      48.599  82.583  39.980  0.00  0.00    -0.264 NA
ATOM     16  C   UNL     1      48.263  82.150  38.625  0.00  0.00    +0.171 C 
ENDROOT
BRANCH  14  17
ATOM     17  C   UNL     1      48.769  82.745  42.368  0.00  0.00    +0.045 A 
ATOM     18  C   UNL     1      50.101  82.622  42.736  0.00  0.00    +0.004 A 
ATOM     19  C   UNL     1      50.592  83.165  43.894  0.00  0.00    +0.000 A 
ATOM     20  C   UNL     1      49.760  83.863  44.745  0.00  0.00    +0.002 A 
ATOM     21  C   UNL     1      48.428  84.004  44.408  0.00  0.00    +0.030 A 
ATOM     22  C   UNL     1      47.960  83.448  43.237  0.00  0.00    +0.142 A 
ATOM     23  F   UNL     1      46.652  83.593  42.919  0.00  0.00    -0.204 F 
ENDBRANCH  14  17
TORSDOF 1
