REMARK  Name = Midecamycin
REMARK  14 active torsions:
REMARK  status: ('A' for Active; 'I' for Inactive)
REMARK    1  A    between atoms: C_2  and  C_3
REMARK    2  A    between atoms: C_3  and  O_5
REMARK    3  A    between atoms: O_5  and  C_6
REMARK    4  A    between atoms: C_20  and  C_52
REMARK    5  A    between atoms: C_21  and  O_25
REMARK    6  A    between atoms: C_22  and  O_23
REMARK    7  A    between atoms: O_25  and  C_26
REMARK    8  A    between atoms: C_28  and  N_48
REMARK    9  A    between atoms: C_29  and  O_33
REMARK   10  A    between atoms: O_33  and  C_34
REMARK   11  A    between atoms: C_37  and  O_41
REMARK   12  A    between atoms: O_41  and  C_42
REMARK   13  A    between atoms: C_42  and  C_44
REMARK   14  A    between atoms: C_52  and  C_53
REMARK                            x       y       z     vdW  Elec       q    Type
REMARK                         _______ _______ _______ _____ _____    ______ ____
ROOT
ATOM      1  C   UNL     1      43.719  73.077  40.778  0.00  0.00    +0.209 C 
ATOM      2  C   UNL     1      43.745  72.187  41.965  0.00  0.00    +0.156 C 
ATOM      3  C   UNL     1      43.830  70.745  41.525  0.00  0.00    +0.321 C 
ATOM      4  O   UNL     1      42.849  70.219  40.957  0.00  0.00    -0.250 OA
ATOM      5  O   UNL     1      44.961  69.968  41.724  0.00  0.00    -0.452 OA
ATOM      6  C   UNL     1      46.277  70.485  41.625  0.00  0.00    +0.173 C 
ATOM      7  C   UNL     1      46.985  70.567  42.958  0.00  0.00    +0.070 C 
ATOM      8  C   UNL     1      48.449  70.379  42.810  0.00  0.00    -0.022 C 
ATOM      9  C   UNL     1      49.389  71.005  43.469  0.00  0.00    -0.005 C 
ATOM     10  C   UNL     1      49.289  72.014  44.483  0.00  0.00    -0.002 C 
ATOM     11  C   UNL     1      49.017  73.290  44.373  0.00  0.00    +0.006 C 
ATOM     12  C   UNL     1      48.738  74.042  43.128  0.00  0.00    +0.174 C 
ATOM     13  C   UNL     1      47.725  75.141  43.408  0.00  0.00    +0.035 C 
ATOM     14  C   UNL     1      46.318  74.564  43.235  0.00  0.00    +0.006 C 
ATOM     15  C   UNL     1      45.322  75.609  42.893  0.00  0.00    +0.038 C 
ATOM     16  C   UNL     1      44.164  75.228  42.041  0.00  0.00    +0.149 C 
ATOM     17  C   UNL     1      44.525  74.333  40.863  0.00  0.00    +0.183 C 
ATOM     18  C   UNL     1      48.001  76.320  42.536  0.00  0.00    +0.003 C 
ATOM     19  O   UNL     1      48.364  73.287  42.053  0.00  0.00    -0.218 OA
ATOM     20  C   UNL     1      47.007  69.591  40.646  0.00  0.00    +0.048 C 
ENDROOT
BRANCH  17  21
ATOM     21  O   UNL     1      44.381  75.081  39.692  0.00  0.00    -0.347 OA
ATOM     22  C   UNL     1      43.251  75.867  39.680  0.00  0.00    +0.174 C 
ENDBRANCH  17  21
BRANCH   1  23
ATOM     23  O   UNL     1      42.343  73.371  40.495  0.00  0.00    -0.449 OA
BRANCH  23  24
ATOM     24  C   UNL     1      41.358  72.894  41.371  0.00  0.00    +0.317 C 
ATOM     25  O   UNL     1      40.181  73.174  41.095  0.00  0.00    -0.250 OA
BRANCH  24  27
ATOM     26  C   UNL     1      41.850  70.654  42.098  0.00  0.00    +0.012 C 
ATOM     27  C   UNL     1      41.783  72.104  42.538  0.00  0.00    +0.110 C 
ENDBRANCH  24  27
ENDBRANCH  23  24
ENDBRANCH   1  23
BRANCH  16  28
ATOM     28  O   UNL     1      43.403  76.294  41.599  0.00  0.00    -0.328 OA
BRANCH  28  29
ATOM     29  C   UNL     1      43.589  76.829  40.383  0.00  0.00    +0.268 C 
ATOM     30  C   UNL     1      43.146  78.257  40.356  0.00  0.00    +0.225 C 
ATOM     31  C   UNL     1      44.188  79.226  39.893  0.00  0.00    +0.123 C 
ATOM     32  C   UNL     1      45.543  78.982  40.517  0.00  0.00    +0.162 C 
ATOM     33  C   UNL     1      45.764  77.525  40.699  0.00  0.00    +0.146 C 
ATOM     34  O   UNL     1      44.928  76.720  39.937  0.00  0.00    -0.329 OA
ATOM     35  C   UNL     1      47.193  77.088  40.399  0.00  0.00    +0.035 C 
ATOM     36  O   UNL     1      42.016  78.373  39.577  0.00  0.00    -0.216 OA
BRANCH  31  37
ATOM     37  N   UNL     1      44.310  79.457  38.516  0.00  0.00    -0.267 NA
ATOM     38  C   UNL     1      43.551  80.560  37.987  0.00  0.00    +0.090 C 
ATOM     39  C   UNL     1      44.502  78.382  37.627  0.00  0.00    +0.090 C 
ENDBRANCH  31  37
BRANCH  32  40
ATOM     40  O   UNL     1      45.593  79.560  41.809  0.00  0.00    -0.329 OA
BRANCH  40  41
ATOM     41  C   UNL     1      46.798  80.102  42.138  0.00  0.00    +0.238 C 
ATOM     42  C   UNL     1      46.670  81.324  43.025  0.00  0.00    +0.095 C 
ATOM     43  C   UNL     1      46.935  82.539  42.147  0.00  0.00    +0.170 C 
ATOM     44  C   UNL     1      48.399  82.505  41.778  0.00  0.00    +0.223 C 
ATOM     45  C   UNL     1      48.731  81.028  41.547  0.00  0.00    +0.160 C 
ATOM     46  O   UNL     1      47.614  80.360  41.032  0.00  0.00    -0.329 OA
ATOM     47  C   UNL     1      49.916  80.927  40.614  0.00  0.00    +0.036 C 
ATOM     48  C   UNL     1      46.513  83.828  42.805  0.00  0.00    +0.037 C 
ATOM     49  O   UNL     1      46.220  82.377  40.960  0.00  0.00    -0.222 OA
BRANCH  44  50
ATOM     50  O   UNL     1      49.134  82.935  42.904  0.00  0.00    -0.447 OA
BRANCH  50  51
ATOM     51  C   UNL     1      50.308  83.662  42.807  0.00  0.00    +0.317 C 
ATOM     52  O   UNL     1      50.678  84.085  41.701  0.00  0.00    -0.250 OA
BRANCH  51  53
ATOM     53  C   UNL     1      51.073  83.900  44.068  0.00  0.00    +0.110 C 
ATOM     54  C   UNL     1      50.604  85.172  44.741  0.00  0.00    +0.012 C 
ENDBRANCH  51  53
ENDBRANCH  50  51
ENDBRANCH  44  50
ENDBRANCH  40  41
ENDBRANCH  32  40
ENDBRANCH  28  29
ENDBRANCH  16  28
BRANCH  15  55
ATOM     55  C   UNL     1      44.790  76.135  44.234  0.00  0.00    +0.075 C 
BRANCH  55  56
ATOM     56  C   UNL     1      43.742  77.157  44.077  0.00  0.00    +0.207 C 
ATOM     57  O   UNL     1      42.639  77.139  44.579  0.00  0.00    -0.288 OA
ENDBRANCH  55  56
ENDBRANCH  15  55
TORSDOF 14
