REMARK  Name = Midostaurin
REMARK  3 active torsions:
REMARK  status: ('A' for Active; 'I' for Inactive)
REMARK    1  A    between atoms: C_3  and  O_42
REMARK    2  A    between atoms: C_4  and  N_32
REMARK    3  A    between atoms: C_34  and  C_36
REMARK                            x       y       z     vdW  Elec       q    Type
REMARK                         _______ _______ _______ _____ _____    ______ ____
ROOT
ATOM      1  C   UNL     1      48.711  76.527  42.058  0.00  0.00    +0.057 C 
ATOM      2  C   UNL     1      47.334  77.224  42.248  0.00  0.00    +0.192 C 
ATOM      3  C   UNL     1      46.590  76.738  43.379  0.00  0.00    +0.178 C 
ATOM      4  C   UNL     1      45.358  75.852  43.216  0.00  0.00    +0.111 C 
ATOM      5  C   UNL     1      44.683  75.966  41.811  0.00  0.00    +0.076 C 
ATOM      6  C   UNL     1      45.302  77.095  41.335  0.00  0.00    +0.208 C 
ATOM      7  O   UNL     1      46.623  76.747  41.103  0.00  0.00    -0.319 OA
ATOM      8  N   UNL     1      44.989  78.084  40.375  0.00  0.00    -0.304 N 
ATOM      9  C   UNL     1      43.988  78.254  39.524  0.00  0.00    +0.062 A 
ATOM     10  C   UNL     1      42.952  77.392  39.231  0.00  0.00    +0.017 A 
ATOM     11  C   UNL     1      42.036  77.817  38.306  0.00  0.00    +0.001 A 
ATOM     12  C   UNL     1      42.159  79.061  37.699  0.00  0.00    +0.000 A 
ATOM     13  C   UNL     1      43.193  79.921  37.991  0.00  0.00    +0.001 A 
ATOM     14  C   UNL     1      44.115  79.508  38.914  0.00  0.00    +0.017 A 
ATOM     15  C   UNL     1      45.243  80.099  39.432  0.00  0.00    +0.023 A 
ATOM     16  C   UNL     1      45.887  81.322  39.315  0.00  0.00    +0.054 A 
ATOM     17  C   UNL     1      47.024  81.591  40.090  0.00  0.00    +0.005 A 
ATOM     18  C   UNL     1      47.563  80.680  40.991  0.00  0.00    +0.017 A 
ATOM     19  C   UNL     1      48.624  80.597  41.844  0.00  0.00    +0.017 A 
ATOM     20  C   UNL     1      49.572  81.551  42.130  0.00  0.00    +0.001 A 
ATOM     21  C   UNL     1      50.548  81.246  43.047  0.00  0.00    +0.000 A 
ATOM     22  C   UNL     1      50.572  80.013  43.660  0.00  0.00    +0.001 A 
ATOM     23  C   UNL     1      49.596  79.086  43.339  0.00  0.00    +0.017 A 
ATOM     24  C   UNL     1      48.587  79.337  42.422  0.00  0.00    +0.062 A 
ATOM     25  N   UNL     1      47.525  78.631  41.947  0.00  0.00    -0.305 N 
ATOM     26  C   UNL     1      46.911  79.481  41.084  0.00  0.00    +0.077 A 
ATOM     27  C   UNL     1      45.783  79.213  40.328  0.00  0.00    +0.078 A 
ATOM     28  C   UNL     1      47.535  82.958  39.788  0.00  0.00    +0.142 C 
ATOM     29  N   UNL     1      46.630  83.451  38.806  0.00  0.00    -0.197 NA
ATOM     30  C   UNL     1      45.614  82.473  38.496  0.00  0.00    +0.265 C 
ATOM     31  O   UNL     1      44.695  82.629  37.675  0.00  0.00    -0.268 OA
ENDROOT
BRANCH   4  32
ATOM     32  N   UNL     1      45.486  74.503  43.617  0.00  0.00    -0.273 N 
ATOM     33  C   UNL     1      46.107  74.252  44.937  0.00  0.00    +0.115 C 
ATOM     34  C   UNL     1      45.088  73.367  42.911  0.00  0.00    +0.249 C 
ATOM     35  O   UNL     1      45.287  72.222  43.370  0.00  0.00    -0.270 OA
BRANCH  34  36
ATOM     36  C   UNL     1      44.435  73.460  41.628  0.00  0.00    +0.054 A 
ATOM     37  C   UNL     1      45.103  73.846  40.494  0.00  0.00    +0.005 A 
ATOM     38  C   UNL     1      44.450  73.936  39.265  0.00  0.00    +0.000 A 
ATOM     39  C   UNL     1      43.102  73.629  39.190  0.00  0.00    +0.000 A 
ATOM     40  C   UNL     1      42.427  73.239  40.328  0.00  0.00    +0.000 A 
ATOM     41  C   UNL     1      43.089  73.156  41.537  0.00  0.00    +0.005 A 
ENDBRANCH  34  36
ENDBRANCH   4  32
BRANCH   3  42
ATOM     42  O   UNL     1      46.438  77.622  44.457  0.00  0.00    -0.347 OA
ATOM     43  C   UNL     1      47.105  77.272  45.598  0.00  0.00    +0.174 C 
ENDBRANCH   3  42
TORSDOF 3
