REMARK  Name = Mifepristone
REMARK  3 active torsions:
REMARK  status: ('A' for Active; 'I' for Inactive)
REMARK    1  A    between atoms: C_3  and  C_4
REMARK    2  A    between atoms: C_10  and  C_22
REMARK    3  A    between atoms: C_25  and  N_28
REMARK                            x       y       z     vdW  Elec       q    Type
REMARK                         _______ _______ _______ _____ _____    ______ ____
ROOT
ATOM      1  C   UNL     1      49.612  81.857  44.389  0.00  0.00    +0.179 C 
ATOM      2  C   UNL     1      49.043  83.143  44.915  0.00  0.00    +0.043 C 
ATOM      3  C   UNL     1      48.254  83.790  43.757  0.00  0.00    +0.004 C 
ATOM      4  C   UNL     1      48.050  82.601  42.857  0.00  0.00    +0.007 C 
ATOM      5  C   UNL     1      49.389  81.986  42.866  0.00  0.00    +0.037 C 
ATOM      6  C   UNL     1      49.440  80.686  42.192  0.00  0.00    +0.012 C 
ATOM      7  C   UNL     1      48.331  80.388  41.258  0.00  0.00    +0.040 C 
ATOM      8  C   UNL     1      47.541  81.504  40.766  0.00  0.00    -0.045 C 
ATOM      9  C   UNL     1      46.960  81.504  39.591  0.00  0.00    -0.033 C 
ATOM     10  C   UNL     1      47.116  80.290  38.699  0.00  0.00    +0.034 C 
ATOM     11  C   UNL     1      46.209  80.366  37.517  0.00  0.00    +0.074 C 
ATOM     12  C   UNL     1      44.958  81.168  37.776  0.00  0.00    +0.173 C 
ATOM     13  O   UNL     1      43.818  80.730  37.572  0.00  0.00    -0.291 OA
ATOM     14  C   UNL     1      45.182  82.502  38.282  0.00  0.00    +0.033 C 
ATOM     15  C   UNL     1      46.176  82.654  39.178  0.00  0.00    -0.024 C 
ATOM     16  C   UNL     1      46.441  84.023  39.713  0.00  0.00    +0.026 C 
ATOM     17  C   UNL     1      47.553  83.969  40.762  0.00  0.00    +0.009 C 
ATOM     18  C   UNL     1      47.352  82.757  41.607  0.00  0.00    +0.019 C 
ATOM     19  C   UNL     1      50.522  82.885  42.403  0.00  0.00    +0.003 C 
ATOM     20  O   UNL     1      48.926  80.773  44.889  0.00  0.00    -0.212 OA
ENDROOT
BRANCH   7  21
ATOM     21  C   UNL     1      47.515  79.305  41.883  0.00  0.00    -0.019 A 
ATOM     22  C   UNL     1      47.676  78.030  41.499  0.00  0.00    -0.003 A 
ATOM     23  C   UNL     1      46.879  77.048  42.071  0.00  0.00    +0.014 A 
ATOM     24  C   UNL     1      45.932  77.384  43.021  0.00  0.00    +0.048 A 
ATOM     25  C   UNL     1      45.792  78.681  43.390  0.00  0.00    +0.014 A 
ATOM     26  C   UNL     1      46.589  79.651  42.819  0.00  0.00    -0.003 A 
BRANCH  24  27
ATOM     27  N   UNL     1      45.091  76.430  43.635  0.00  0.00    -0.304 N 
ATOM     28  C   UNL     1      44.427  76.743  44.875  0.00  0.00    +0.112 C 
ATOM     29  C   UNL     1      44.898  75.141  43.031  0.00  0.00    +0.112 C 
ENDBRANCH  24  27
ENDBRANCH   7  21
BRANCH   1  32
ATOM     30  C   UNL     1      53.658  81.494  45.139  0.00  0.00    +0.090 C 
ATOM     31  C   UNL     1      52.202  81.619  44.860  0.00  0.00    -0.088 C 
ATOM     32  C   UNL     1      51.041  81.727  44.656  0.00  0.00    -0.062 C 
ENDBRANCH   1  32
TORSDOF 3
