REMARK  Name = Miglitol
REMARK  3 active torsions:
REMARK  status: ('A' for Active; 'I' for Inactive)
REMARK    1  A    between atoms: C_5  and  C_10
REMARK    2  A    between atoms: N_6  and  C_7
REMARK    3  A    between atoms: C_7  and  C_8
REMARK                            x       y       z     vdW  Elec       q    Type
REMARK                         _______ _______ _______ _____ _____    ______ ____
ROOT
ATOM      1  C   UNL     1      47.208  82.516  39.760  0.00  0.00    +0.108 C 
ATOM      2  C   UNL     1      46.654  81.949  38.509  0.00  0.00    +0.201 C 
ATOM      3  C   UNL     1      45.615  80.875  38.745  0.00  0.00    +0.215 C 
ATOM      4  C   UNL     1      46.209  79.884  39.703  0.00  0.00    +0.202 C 
ATOM      5  C   UNL     1      46.367  80.665  41.036  0.00  0.00    +0.124 C 
ATOM      6  N   UNL     1      47.380  81.590  40.847  0.00  0.00    -0.265 NA
ATOM      7  O   UNL     1      45.402  78.778  39.909  0.00  0.00    -0.219 OA
ATOM      8  O   UNL     1      44.442  81.412  39.228  0.00  0.00    -0.218 OA
ATOM      9  O   UNL     1      46.002  82.969  37.789  0.00  0.00    -0.219 OA
ENDROOT
BRANCH   5  10
ATOM     10  C   UNL     1      46.444  79.646  42.109  0.00  0.00    +0.201 C 
ATOM     11  O   UNL     1      47.682  78.951  41.908  0.00  0.00    -0.219 OA
ENDBRANCH   5  10
BRANCH   6  12
ATOM     12  C   UNL     1      48.263  82.040  41.809  0.00  0.00    +0.108 C 
BRANCH  12  13
ATOM     13  C   UNL     1      49.575  82.496  41.272  0.00  0.00    +0.199 C 
ATOM     14  O   UNL     1      50.466  82.854  42.298  0.00  0.00    -0.219 OA
ENDBRANCH  12  13
ENDBRANCH   6  12
TORSDOF 3
