REMARK  Name = Miglustat
REMARK  4 active torsions:
REMARK  status: ('A' for Active; 'I' for Inactive)
REMARK    1  A    between atoms: C_2  and  C_3
REMARK    2  A    between atoms: C_3  and  C_4
REMARK    3  A    between atoms: C_4  and  N_5
REMARK    4  A    between atoms: C_10  and  C_11
REMARK                            x       y       z     vdW  Elec       q    Type
REMARK                         _______ _______ _______ _____ _____    ______ ____
ROOT
ATOM      1  N   UNL     1      46.162  79.984  40.613  0.00  0.00    -0.267 NA
ATOM      2  C   UNL     1      45.288  80.245  39.522  0.00  0.00    +0.108 C 
ATOM      3  C   UNL     1      45.354  81.544  38.834  0.00  0.00    +0.201 C 
ATOM      4  C   UNL     1      46.848  81.829  38.601  0.00  0.00    +0.215 C 
ATOM      5  C   UNL     1      47.340  82.103  39.998  0.00  0.00    +0.202 C 
ATOM      6  C   UNL     1      47.171  80.940  40.887  0.00  0.00    +0.124 C 
ATOM      7  O   UNL     1      48.649  82.580  40.012  0.00  0.00    -0.219 OA
ATOM      8  O   UNL     1      47.043  82.867  37.725  0.00  0.00    -0.218 OA
ATOM      9  O   UNL     1      44.792  82.549  39.584  0.00  0.00    -0.219 OA
ENDROOT
BRANCH   6  10
ATOM     10  C   UNL     1      47.146  81.471  42.329  0.00  0.00    +0.201 C 
ATOM     11  O   UNL     1      48.405  81.242  42.925  0.00  0.00    -0.219 OA
ENDBRANCH   6  10
BRANCH   1  12
ATOM     12  C   UNL     1      46.702  78.653  40.361  0.00  0.00    +0.072 C 
BRANCH  12  13
ATOM     13  C   UNL     1      45.968  77.541  40.992  0.00  0.00    +0.017 C 
BRANCH  13  15
ATOM     14  C   UNL     1      44.461  77.270  42.958  0.00  0.00    +0.000 C 
ATOM     15  C   UNL     1      45.766  77.887  42.474  0.00  0.00    +0.001 C 
ENDBRANCH  13  15
ENDBRANCH  12  13
ENDBRANCH   1  12
TORSDOF 4
