REMARK  Name = Milnacipran
REMARK  5 active torsions:
REMARK  status: ('A' for Active; 'I' for Inactive)
REMARK    1  A    between atoms: C_2  and  N_3
REMARK    2  A    between atoms: N_3  and  C_4
REMARK    3  A    between atoms: C_6  and  C_8
REMARK    4  A    between atoms: C_8  and  C_13
REMARK    5  A    between atoms: C_10  and  C_11
REMARK                            x       y       z     vdW  Elec       q    Type
REMARK                         _______ _______ _______ _____ _____    ______ ____
ROOT
ATOM      1  C   UNL     1      45.301  79.643  39.865  0.00  0.00    +0.089 C 
ATOM      2  C   UNL     1      46.689  79.735  39.464  0.00  0.00    +0.015 C 
ATOM      3  C   UNL     1      46.068  80.833  40.308  0.00  0.00    +0.032 C 
ENDROOT
BRANCH   1   4
ATOM      4  C   UNL     1      45.026  78.589  40.917  0.00  0.00    -0.015 A 
ATOM      5  C   UNL     1      44.287  78.806  42.044  0.00  0.00    -0.004 A 
ATOM      6  C   UNL     1      44.047  77.793  42.977  0.00  0.00    -0.000 A 
ATOM      7  C   UNL     1      44.545  76.540  42.795  0.00  0.00    -0.000 A 
ATOM      8  C   UNL     1      45.293  76.306  41.662  0.00  0.00    -0.000 A 
ATOM      9  C   UNL     1      45.530  77.306  40.741  0.00  0.00    -0.004 A 
ENDBRANCH   1   4
BRANCH   1  11
ATOM     10  N   UNL     1      42.934  79.107  38.931  0.00  0.00    -0.279 N 
ATOM     11  C   UNL     1      44.107  79.843  39.017  0.00  0.00    +0.229 C 
ATOM     12  O   UNL     1      44.226  80.887  38.239  0.00  0.00    -0.275 OA
BRANCH  10  14
ATOM     13  C   UNL     1      42.509  76.731  39.448  0.00  0.00    +0.023 C 
ATOM     14  C   UNL     1      42.477  78.172  39.913  0.00  0.00    +0.093 C 
ENDBRANCH  10  14
BRANCH  10  15
ATOM     15  C   UNL     1      42.034  79.297  37.774  0.00  0.00    +0.093 C 
ATOM     16  C   UNL     1      41.165  78.090  37.581  0.00  0.00    +0.023 C 
ENDBRANCH  10  15
ENDBRANCH   1  11
BRANCH   3  17
ATOM     17  C   UNL     1      45.932  82.180  39.633  0.00  0.00    +0.110 C 
ATOM     18  N   UNL     1      46.916  83.075  40.261  0.00  0.00    -0.131 NA
ENDBRANCH   3  17
TORSDOF 5
