REMARK  Name = Milrinone
REMARK  2 active torsions:
REMARK  status: ('A' for Active; 'I' for Inactive)
REMARK    1  A    between atoms: C_3  and  C_11
REMARK    2  A    between atoms: C_5  and  C_9
REMARK                            x       y       z     vdW  Elec       q    Type
REMARK                         _______ _______ _______ _____ _____    ______ ____
ROOT
ATOM      1  C   UNL     1      43.309  78.553  38.915  0.00  0.00    +0.052 C 
ATOM      2  C   UNL     1      44.378  79.487  39.282  0.00  0.00    +0.063 A 
ATOM      3  C   UNL     1      45.227  79.190  40.320  0.00  0.00    +0.015 A 
ATOM      4  C   UNL     1      46.211  80.149  40.595  0.00  0.00    +0.016 A 
ATOM      5  C   UNL     1      46.331  81.314  39.882  0.00  0.00    +0.126 A 
ATOM      6  C   UNL     1      45.453  81.557  38.853  0.00  0.00    +0.289 A 
ATOM      7  O   UNL     1      45.512  82.620  38.152  0.00  0.00    -0.264 OA
ATOM      8  N   UNL     1      44.497  80.646  38.570  0.00  0.00    -0.212 NA
ENDROOT
BRANCH   3   9
ATOM      9  C   UNL     1      45.131  77.965  41.090  0.00  0.00    +0.004 A 
ATOM     10  C   UNL     1      44.277  77.885  42.167  0.00  0.00    +0.021 A 
ATOM     11  C   UNL     1      44.171  76.719  42.927  0.00  0.00    +0.099 A 
ATOM     12  N   UNL     1      44.937  75.676  42.562  0.00  0.00    -0.242 NA
ATOM     13  C   UNL     1      45.788  75.680  41.529  0.00  0.00    +0.099 A 
ATOM     14  C   UNL     1      45.878  76.860  40.782  0.00  0.00    +0.021 A 
ENDBRANCH   3   9
BRANCH   5  15
ATOM     15  C   UNL     1      47.353  82.245  40.215  0.00  0.00    +0.105 C 
ATOM     16  N   UNL     1      48.194  82.986  40.494  0.00  0.00    -0.191 NA
ENDBRANCH   5  15
TORSDOF 2
