REMARK  Name = Miltefosine
REMARK  20 active torsions:
REMARK  status: ('A' for Active; 'I' for Inactive)
REMARK    1  A    between atoms: C_2  and  C_3
REMARK    2  A    between atoms: C_3  and  C_4
REMARK    3  A    between atoms: C_4  and  C_5
REMARK    4  A    between atoms: C_5  and  C_6
REMARK    5  A    between atoms: C_6  and  C_7
REMARK    6  A    between atoms: C_7  and  C_8
REMARK    7  A    between atoms: C_8  and  C_9
REMARK    8  A    between atoms: C_9  and  C_10
REMARK    9  A    between atoms: C_10  and  C_11
REMARK   10  A    between atoms: C_11  and  C_12
REMARK   11  A    between atoms: C_12  and  C_13
REMARK   12  A    between atoms: C_13  and  C_14
REMARK   13  A    between atoms: C_14  and  C_15
REMARK   14  A    between atoms: C_15  and  C_16
REMARK   15  A    between atoms: C_16  and  O_17
REMARK   16  A    between atoms: O_17  and  P_18
REMARK   17  A    between atoms: P_18  and  O_21
REMARK   18  A    between atoms: O_21  and  C_22
REMARK   19  A    between atoms: C_22  and  C_23
REMARK   20  A    between atoms: C_23  and  N_24
REMARK                            x       y       z     vdW  Elec       q    Type
REMARK                         _______ _______ _______ _____ _____    ______ ____
ROOT
ATOM      1  C   UNL     1      47.955  81.159  41.566  0.00  0.00    +0.003 C 
ENDROOT
BRANCH   1   2
ATOM      2  C   UNL     1      46.603  81.258  41.045  0.00  0.00    +0.033 C 
BRANCH   2   3
ATOM      3  C   UNL     1      45.716  80.095  40.868  0.00  0.00    +0.154 C 
BRANCH   3   4
ATOM      4  O   UNL     1      44.462  80.616  40.380  0.00  0.00    -0.272 OA
BRANCH   4   5
ATOM      5  P   UNL     1      44.490  80.415  38.718  0.00  0.00    +0.506 P 
ATOM      6  O   UNL     1      45.204  81.551  38.023  0.00  0.00    -0.225 OA
ATOM      7  O   UNL     1      45.257  78.968  38.251  0.00  0.00    -0.116 OA
BRANCH   5   8
ATOM      8  O   UNL     1      42.881  80.428  38.139  0.00  0.00    -0.274 OA
BRANCH   8   9
ATOM      9  C   UNL     1      42.517  79.114  37.914  0.00  0.00    +0.132 C 
BRANCH   9  10
ATOM     10  C   UNL     1      41.080  78.982  37.465  0.00  0.00    -0.040 C 
BRANCH  10  11
ATOM     11  N   UNL     1      40.598  77.640  37.437  0.00  0.00    +0.387 N 
ATOM     12  C   UNL     1      41.069  76.811  38.508  0.00  0.00    -0.096 C 
ATOM     13  C   UNL     1      40.935  76.995  36.184  0.00  0.00    -0.096 C 
ATOM     14  C   UNL     1      39.134  77.710  37.563  0.00  0.00    -0.096 C 
ENDBRANCH  10  11
ENDBRANCH   9  10
ENDBRANCH   8   9
ENDBRANCH   5   8
ENDBRANCH   4   5
ENDBRANCH   3   4
ENDBRANCH   2   3
ENDBRANCH   1   2
BRANCH   1  15
ATOM     15  C   UNL     1      48.814  82.352  41.647  0.00  0.00    +0.000 C 
BRANCH  15  16
ATOM     16  C   UNL     1      48.678  83.224  42.830  0.00  0.00    +0.000 C 
BRANCH  16  17
ATOM     17  C   UNL     1      50.059  83.668  43.316  0.00  0.00    +0.000 C 
BRANCH  17  18
ATOM     18  C   UNL     1      49.903  84.510  44.542  0.00  0.00    +0.000 C 
BRANCH  18  19
ATOM     19  C   UNL     1      50.318  83.757  45.794  0.00  0.00    +0.000 C 
BRANCH  19  20
ATOM     20  C   UNL     1      51.749  84.040  46.096  0.00  0.00    +0.000 C 
BRANCH  20  21
ATOM     21  C   UNL     1      51.889  84.620  47.483  0.00  0.00    +0.000 C 
BRANCH  21  22
ATOM     22  C   UNL     1      52.634  83.630  48.356  0.00  0.00    +0.000 C 
BRANCH  22  23
ATOM     23  C   UNL     1      54.046  84.037  48.646  0.00  0.00    +0.000 C 
BRANCH  23  24
ATOM     24  C   UNL     1      54.655  83.007  49.572  0.00  0.00    +0.000 C 
BRANCH  24  25
ATOM     25  C   UNL     1      56.142  83.193  49.751  0.00  0.00    +0.000 C 
BRANCH  25  27
ATOM     26  C   UNL     1      56.680  80.778  49.995  0.00  0.00    +0.000 C 
ATOM     27  C   UNL     1      56.733  82.133  50.663  0.00  0.00    +0.000 C 
ENDBRANCH  25  27
ENDBRANCH  24  25
ENDBRANCH  23  24
ENDBRANCH  22  23
ENDBRANCH  21  22
ENDBRANCH  20  21
ENDBRANCH  19  20
ENDBRANCH  18  19
ENDBRANCH  17  18
ENDBRANCH  16  17
ENDBRANCH  15  16
ENDBRANCH   1  15
TORSDOF 20
