REMARK  Name = Minaprine
REMARK  4 active torsions:
REMARK  status: ('A' for Active; 'I' for Inactive)
REMARK    1  A    between atoms: C_4  and  C_17
REMARK    2  A    between atoms: N_8  and  C_9
REMARK    3  A    between atoms: C_9  and  C_10
REMARK    4  A    between atoms: C_10  and  N_11
REMARK                            x       y       z     vdW  Elec       q    Type
REMARK                         _______ _______ _______ _____ _____    ______ ____
ROOT
ATOM      1  C   UNL     1      45.640  82.296  38.175  0.00  0.00    +0.034 C 
ATOM      2  C   UNL     1      46.143  81.797  39.489  0.00  0.00    +0.014 A 
ATOM      3  C   UNL     1      47.074  82.558  40.211  0.00  0.00    +0.020 A 
ATOM      4  C   UNL     1      47.563  82.139  41.425  0.00  0.00    +0.103 A 
ATOM      5  N   UNL     1      47.093  80.951  41.881  0.00  0.00    -0.147 NA
ATOM      6  N   UNL     1      46.215  80.221  41.212  0.00  0.00    -0.132 NA
ATOM      7  C   UNL     1      45.719  80.601  40.027  0.00  0.00    +0.165 A 
ATOM      8  N   UNL     1      44.790  79.807  39.349  0.00  0.00    -0.218 NA
ENDROOT
BRANCH   4   9
ATOM      9  C   UNL     1      48.532  82.896  42.215  0.00  0.00    +0.019 A 
ATOM     10  C   UNL     1      48.157  84.104  42.805  0.00  0.00    +0.002 A 
ATOM     11  C   UNL     1      49.028  84.861  43.560  0.00  0.00    +0.000 A 
ATOM     12  C   UNL     1      50.325  84.446  43.766  0.00  0.00    +0.000 A 
ATOM     13  C   UNL     1      50.714  83.256  43.192  0.00  0.00    +0.000 A 
ATOM     14  C   UNL     1      49.827  82.490  42.425  0.00  0.00    +0.002 A 
ENDBRANCH   4   9
BRANCH   8  15
ATOM     15  C   UNL     1      44.286  78.593  39.952  0.00  0.00    +0.131 C 
BRANCH  15  16
ATOM     16  C   UNL     1      42.792  78.482  39.932  0.00  0.00    +0.096 C 
BRANCH  16  17
ATOM     17  N   UNL     1      42.418  77.574  38.867  0.00  0.00    -0.267 NA
ATOM     18  C   UNL     1      41.589  78.237  37.936  0.00  0.00    +0.105 C 
ATOM     19  C   UNL     1      40.632  77.413  37.153  0.00  0.00    +0.159 C 
ATOM     20  O   UNL     1      40.569  76.082  37.478  0.00  0.00    -0.351 OA
ATOM     21  C   UNL     1      40.671  75.859  38.852  0.00  0.00    +0.159 C 
ATOM     22  C   UNL     1      41.990  76.326  39.391  0.00  0.00    +0.105 C 
ENDBRANCH  16  17
ENDBRANCH  15  16
ENDBRANCH   8  15
TORSDOF 4
