REMARK  Name = Minocycline
REMARK  3 active torsions:
REMARK  status: ('A' for Active; 'I' for Inactive)
REMARK    1  A    between atoms: N_2  and  C_4
REMARK    2  A    between atoms: C_10  and  N_31
REMARK    3  A    between atoms: C_21  and  C_24
REMARK                            x       y       z     vdW  Elec       q    Type
REMARK                         _______ _______ _______ _____ _____    ______ ____
ROOT
ATOM      1  C   UNL     1      43.038  77.383  41.147  0.00  0.00    +0.124 C 
ATOM      2  C   UNL     1      44.283  77.636  40.337  0.00  0.00    +0.065 C 
ATOM      3  C   UNL     1      45.354  78.231  41.197  0.00  0.00    +0.010 C 
ATOM      4  C   UNL     1      46.424  78.932  40.305  0.00  0.00    +0.033 C 
ATOM      5  C   UNL     1      47.608  79.277  41.086  0.00  0.00    +0.032 C 
ATOM      6  C   UNL     1      48.188  80.592  40.834  0.00  0.00    -0.002 A 
ATOM      7  C   UNL     1      49.463  80.889  41.307  0.00  0.00    +0.044 A 
ATOM      8  C   UNL     1      49.987  82.159  41.164  0.00  0.00    +0.017 A 
ATOM      9  C   UNL     1      49.257  83.146  40.553  0.00  0.00    +0.043 A 
ATOM     10  C   UNL     1      47.996  82.892  40.070  0.00  0.00    +0.199 A 
ATOM     11  C   UNL     1      47.498  81.594  40.232  0.00  0.00    +0.075 A 
ATOM     12  C   UNL     1      46.192  81.314  39.635  0.00  0.00    +0.197 C 
ATOM     13  C   UNL     1      45.751  80.088  39.701  0.00  0.00    +0.054 C 
ATOM     14  C   UNL     1      44.410  79.800  39.136  0.00  0.00    +0.207 C 
ATOM     15  O   UNL     1      43.659  80.724  38.748  0.00  0.00    -0.289 OA
ATOM     16  C   UNL     1      44.019  78.365  39.062  0.00  0.00    +0.237 C 
ATOM     17  C   UNL     1      42.699  78.218  38.464  0.00  0.00    +0.215 C 
ATOM     18  C   UNL     1      41.759  77.472  38.998  0.00  0.00    +0.130 C 
ATOM     19  C   UNL     1      42.041  76.769  40.232  0.00  0.00    +0.195 C 
ATOM     20  O   UNL     1      41.430  75.691  40.449  0.00  0.00    -0.290 OA
ATOM     21  O   UNL     1      42.404  78.889  37.273  0.00  0.00    -0.288 OA
ATOM     22  O   UNL     1      44.921  77.824  38.088  0.00  0.00    -0.210 OA
ATOM     23  O   UNL     1      45.453  82.339  39.017  0.00  0.00    -0.287 OA
ATOM     24  O   UNL     1      47.247  83.869  39.452  0.00  0.00    -0.286 OA
ENDROOT
BRANCH   1  26
ATOM     25  C   UNL     1      42.462  75.515  42.582  0.00  0.00    +0.090 C 
ATOM     26  N   UNL     1      43.165  76.740  42.377  0.00  0.00    -0.265 NA
ATOM     27  C   UNL     1      44.433  76.688  43.012  0.00  0.00    +0.090 C 
ENDBRANCH   1  26
BRANCH  18  28
ATOM     28  C   UNL     1      40.435  77.329  38.361  0.00  0.00    +0.290 C 
ATOM     29  O   UNL     1      39.456  76.975  39.060  0.00  0.00    -0.266 OA
ATOM     30  N   UNL     1      40.225  77.574  36.994  0.00  0.00    -0.084 NA
ENDBRANCH  18  28
BRANCH   7  31
ATOM     31  N   UNL     1      50.208  79.847  41.912  0.00  0.00    -0.304 N 
ATOM     32  C   UNL     1      50.565  78.632  41.222  0.00  0.00    +0.112 C 
ATOM     33  C   UNL     1      50.628  80.010  43.285  0.00  0.00    +0.112 C 
ENDBRANCH   7  31
TORSDOF 3
