REMARK  Name = Minodronate
REMARK  4 active torsions:
REMARK  status: ('A' for Active; 'I' for Inactive)
REMARK    1  A    between atoms: C_6  and  C_10
REMARK    2  A    between atoms: C_10  and  C_11
REMARK    3  A    between atoms: C_11  and  P_13
REMARK    4  A    between atoms: C_11  and  P_17
REMARK                            x       y       z     vdW  Elec       q    Type
REMARK                         _______ _______ _______ _____ _____    ______ ____
ROOT
ATOM      1  C   UNL     1      48.394  81.195  41.113  0.00  0.00    +0.101 C 
ENDROOT
BRANCH   1   7
ATOM      2  C   UNL     1      44.043  79.146  39.248  0.00  0.00    +0.005 A 
ATOM      3  C   UNL     1      44.295  80.421  38.774  0.00  0.00    +0.037 A 
ATOM      4  C   UNL     1      45.418  81.119  39.170  0.00  0.00    +0.148 A 
ATOM      5  N   UNL     1      45.803  82.351  38.807  0.00  0.00    -0.225 NA
ATOM      6  C   UNL     1      46.954  82.577  39.458  0.00  0.00    +0.114 A 
ATOM      7  C   UNL     1      47.286  81.485  40.228  0.00  0.00    +0.066 A 
ATOM      8  N   UNL     1      46.287  80.598  40.010  0.00  0.00    -0.292 N 
ATOM      9  C   UNL     1      46.046  79.342  40.481  0.00  0.00    +0.081 A 
ATOM     10  C   UNL     1      44.943  78.602  40.120  0.00  0.00    +0.019 A 
ENDBRANCH   1   7
BRANCH   1  11
ATOM     11  C   UNL     1      49.122  82.357  41.692  0.00  0.00    +0.323 C 
ATOM     12  O   UNL     1      49.343  83.215  40.606  0.00  0.00    -0.200 OA
BRANCH  11  13
ATOM     13  P   UNL     1      48.198  83.314  42.874  0.00  0.00    +0.434 P 
ATOM     14  O   UNL     1      46.947  83.892  42.263  0.00  0.00    -0.250 OA
ATOM     15  O   UNL     1      47.751  82.488  44.254  0.00  0.00    -0.136 OA
ATOM     16  O   UNL     1      49.164  84.657  43.318  0.00  0.00    -0.136 OA
ENDBRANCH  11  13
BRANCH  11  17
ATOM     17  P   UNL     1      50.778  81.907  42.301  0.00  0.00    +0.434 P 
ATOM     18  O   UNL     1      51.031  80.424  42.154  0.00  0.00    -0.250 OA
ATOM     19  O   UNL     1      50.932  82.400  43.916  0.00  0.00    -0.136 OA
ATOM     20  O   UNL     1      52.009  82.680  41.434  0.00  0.00    -0.136 OA
ENDBRANCH  11  17
ENDBRANCH   1  11
TORSDOF 4
