REMARK  Name = Minoxidil
REMARK  0 active torsions:
REMARK  status: ('A' for Active; 'I' for Inactive)
REMARK                            x       y       z     vdW  Elec       q    Type
REMARK                         _______ _______ _______ _____ _____    ______ ____
ROOT
ATOM      1  C   UNL     1      50.971  81.811  43.780  0.00  0.00    +0.004 C 
ATOM      2  C   UNL     1      49.815  80.866  43.879  0.00  0.00    +0.022 C 
ATOM      3  C   UNL     1      49.194  80.522  42.558  0.00  0.00    +0.092 C 
ATOM      4  N   UNL     1      48.953  81.670  41.714  0.00  0.00    -0.293 N 
ATOM      5  C   UNL     1      49.897  82.751  41.720  0.00  0.00    +0.092 C 
ATOM      6  C   UNL     1      51.197  82.338  42.395  0.00  0.00    +0.022 C 
ATOM      7  C   UNL     1      47.796  81.710  40.897  0.00  0.00    +0.138 A 
ATOM      8  N   UNL     1      47.506  82.688  40.026  0.00  0.00    -0.193 NA
ATOM      9  C   UNL     1      46.378  82.666  39.271  0.00  0.00    +0.291 A 
ATOM     10  N   UNL     1      46.138  83.621  38.450  0.00  0.00    -0.104 NA
ATOM     11  N   UNL     1      45.487  81.664  39.353  0.00  0.00    -0.076 N 
ATOM     12  C   UNL     1      45.729  80.659  40.210  0.00  0.00    +0.197 A 
ATOM     13  C   UNL     1      46.891  80.679  40.990  0.00  0.00    +0.074 A 
ATOM     14  N   UNL     1      44.808  79.581  40.324  0.00  0.00    -0.105 NA
ATOM     15  O   UNL     1      44.336  81.655  38.574  0.00  0.00    -0.159 OA
ENDROOT
TORSDOF 0
