REMARK  Name = Miokamycin
REMARK  18 active torsions:
REMARK  status: ('A' for Active; 'I' for Inactive)
REMARK    1  A    between atoms: C_2  and  C_3
REMARK    2  A    between atoms: C_3  and  O_5
REMARK    3  A    between atoms: O_5  and  C_6
REMARK    4  A    between atoms: C_17  and  O_59
REMARK    5  A    between atoms: C_20  and  C_55
REMARK    6  A    between atoms: C_21  and  O_25
REMARK    7  A    between atoms: C_22  and  O_23
REMARK    8  A    between atoms: O_25  and  C_26
REMARK    9  A    between atoms: C_28  and  N_51
REMARK   10  A    between atoms: C_29  and  O_33
REMARK   11  A    between atoms: O_33  and  C_34
REMARK   12  A    between atoms: C_36  and  O_47
REMARK   13  A    between atoms: C_37  and  O_41
REMARK   14  A    between atoms: O_41  and  C_42
REMARK   15  A    between atoms: C_42  and  C_44
REMARK   16  A    between atoms: O_47  and  C_48
REMARK   17  A    between atoms: C_55  and  C_56
REMARK   18  A    between atoms: O_59  and  C_60
REMARK                            x       y       z     vdW  Elec       q    Type
REMARK                         _______ _______ _______ _____ _____    ______ ____
ROOT
ATOM      1  C   UNL     1      41.192  77.166  37.302  0.00  0.00    +0.209 C 
ATOM      2  C   UNL     1      39.964  76.712  38.020  0.00  0.00    +0.156 C 
ATOM      3  C   UNL     1      39.477  75.371  37.598  0.00  0.00    +0.321 C 
ATOM      4  O   UNL     1      40.397  74.477  37.539  0.00  0.00    -0.250 OA
ATOM      5  O   UNL     1      38.197  75.050  37.287  0.00  0.00    -0.452 OA
ATOM      6  C   UNL     1      37.070  74.803  38.091  0.00  0.00    +0.173 C 
ATOM      7  C   UNL     1      36.978  73.304  38.237  0.00  0.00    +0.070 C 
ATOM      8  C   UNL     1      36.397  72.852  39.510  0.00  0.00    -0.022 C 
ATOM      9  C   UNL     1      36.915  71.961  40.341  0.00  0.00    -0.005 C 
ATOM     10  C   UNL     1      38.153  71.235  40.205  0.00  0.00    -0.001 C 
ATOM     11  C   UNL     1      39.379  71.610  40.426  0.00  0.00    +0.017 C 
ATOM     12  C   UNL     1      39.854  72.922  40.898  0.00  0.00    +0.191 C 
ATOM     13  C   UNL     1      41.320  73.129  40.515  0.00  0.00    +0.045 C 
ATOM     14  C   UNL     1      41.722  74.573  40.669  0.00  0.00    +0.007 C 
ATOM     15  C   UNL     1      42.835  74.985  39.718  0.00  0.00    +0.038 C 
ATOM     16  C   UNL     1      42.643  76.392  39.224  0.00  0.00    +0.149 C 
ATOM     17  C   UNL     1      42.505  76.563  37.766  0.00  0.00    +0.183 C 
ATOM     18  C   UNL     1      42.197  72.182  41.319  0.00  0.00    +0.004 C 
ATOM     19  C   UNL     1      37.113  75.480  39.428  0.00  0.00    +0.048 C 
ENDROOT
BRANCH  17  20
ATOM     20  O   UNL     1      42.700  75.402  37.044  0.00  0.00    -0.347 OA
ATOM     21  C   UNL     1      44.013  74.957  37.001  0.00  0.00    +0.174 C 
ENDBRANCH  17  20
BRANCH  16  22
ATOM     22  O   UNL     1      43.741  77.136  39.672  0.00  0.00    -0.328 OA
BRANCH  22  23
ATOM     23  C   UNL     1      43.443  78.463  39.899  0.00  0.00    +0.268 C 
ATOM     24  C   UNL     1      44.525  79.281  39.195  0.00  0.00    +0.225 C 
ATOM     25  C   UNL     1      45.090  80.288  40.197  0.00  0.00    +0.123 C 
ATOM     26  C   UNL     1      45.659  79.444  41.304  0.00  0.00    +0.162 C 
ATOM     27  C   UNL     1      44.506  78.673  41.912  0.00  0.00    +0.146 C 
ATOM     28  O   UNL     1      43.338  78.733  41.216  0.00  0.00    -0.329 OA
ATOM     29  C   UNL     1      44.304  79.115  43.367  0.00  0.00    +0.035 C 
ATOM     30  O   UNL     1      45.610  78.501  38.803  0.00  0.00    -0.216 OA
BRANCH  25  31
ATOM     31  N   UNL     1      46.004  81.197  39.603  0.00  0.00    -0.267 NA
ATOM     32  C   UNL     1      47.293  81.298  40.206  0.00  0.00    +0.090 C 
ATOM     33  C   UNL     1      46.137  81.021  38.194  0.00  0.00    +0.090 C 
ENDBRANCH  25  31
BRANCH  26  34
ATOM     34  O   UNL     1      46.283  80.163  42.291  0.00  0.00    -0.329 OA
BRANCH  34  35
ATOM     35  C   UNL     1      47.354  80.956  41.811  0.00  0.00    +0.239 C 
ATOM     36  C   UNL     1      47.306  82.281  42.462  0.00  0.00    +0.105 C 
ATOM     37  C   UNL     1      48.518  82.749  43.181  0.00  0.00    +0.180 C 
ATOM     38  C   UNL     1      49.728  81.872  42.983  0.00  0.00    +0.232 C 
ATOM     39  C   UNL     1      49.585  81.083  41.672  0.00  0.00    +0.161 C 
ATOM     40  O   UNL     1      48.510  80.233  41.923  0.00  0.00    -0.329 OA
ATOM     41  C   UNL     1      50.871  80.331  41.462  0.00  0.00    +0.036 C 
ATOM     42  C   UNL     1      48.279  82.912  44.667  0.00  0.00    +0.048 C 
BRANCH  38  43
ATOM     43  O   UNL     1      50.945  82.553  43.060  0.00  0.00    -0.446 OA
BRANCH  43  44
ATOM     44  C   UNL     1      51.725  82.852  41.952  0.00  0.00    +0.317 C 
ATOM     45  O   UNL     1      51.974  81.922  41.148  0.00  0.00    -0.250 OA
BRANCH  44  46
ATOM     46  C   UNL     1      52.263  84.193  41.688  0.00  0.00    +0.110 C 
ATOM     47  C   UNL     1      51.144  85.184  41.484  0.00  0.00    +0.012 C 
ENDBRANCH  44  46
ENDBRANCH  43  44
ENDBRANCH  38  43
BRANCH  37  48
ATOM     48  O   UNL     1      48.889  84.034  42.689  0.00  0.00    -0.452 OA
BRANCH  48  49
ATOM     49  C   UNL     1      48.149  85.172  42.885  0.00  0.00    +0.317 C 
ATOM     50  O   UNL     1      46.891  85.092  42.872  0.00  0.00    -0.250 OA
ATOM     51  C   UNL     1      48.791  86.515  43.115  0.00  0.00    +0.121 C 
ENDBRANCH  48  49
ENDBRANCH  37  48
ENDBRANCH  34  35
ENDBRANCH  26  34
ENDBRANCH  22  23
ENDBRANCH  16  22
BRANCH  15  52
ATOM     52  C   UNL     1      44.111  74.734  40.473  0.00  0.00    +0.075 C 
BRANCH  52  53
ATOM     53  C   UNL     1      44.160  75.276  41.849  0.00  0.00    +0.207 C 
ATOM     54  O   UNL     1      43.492  74.859  42.746  0.00  0.00    -0.288 OA
ENDBRANCH  52  53
ENDBRANCH  15  52
BRANCH   1  55
ATOM     55  O   UNL     1      41.274  78.576  37.209  0.00  0.00    -0.449 OA
BRANCH  55  56
ATOM     56  C   UNL     1      40.145  79.346  37.166  0.00  0.00    +0.317 C 
ATOM     57  O   UNL     1      40.273  80.589  37.118  0.00  0.00    -0.250 OA
BRANCH  56  59
ATOM     58  C   UNL     1      38.769  77.338  37.571  0.00  0.00    +0.012 C 
ATOM     59  C   UNL     1      38.761  78.781  37.172  0.00  0.00    +0.110 C 
ENDBRANCH  56  59
ENDBRANCH  55  56
ENDBRANCH   1  55
BRANCH  12  60
ATOM     60  O   UNL     1      39.711  73.071  42.294  0.00  0.00    -0.448 OA
BRANCH  60  61
ATOM     61  C   UNL     1      40.163  72.255  43.276  0.00  0.00    +0.318 C 
ATOM     62  O   UNL     1      39.849  72.472  44.447  0.00  0.00    -0.250 OA
ATOM     63  C   UNL     1      41.035  71.108  42.911  0.00  0.00    +0.121 C 
ENDBRANCH  60  61
ENDBRANCH  12  60
TORSDOF 18
