REMARK  Name = Mirtazapine
REMARK  0 active torsions:
REMARK  status: ('A' for Active; 'I' for Inactive)
REMARK                            x       y       z     vdW  Elec       q    Type
REMARK                         _______ _______ _______ _____ _____    ______ ____
ROOT
ATOM      1  C   UNL     1      40.901  77.396  38.044  0.00  0.00    +0.090 C 
ATOM      2  N   UNL     1      42.185  78.013  38.104  0.00  0.00    -0.268 NA
ATOM      3  C   UNL     1      42.145  79.371  37.608  0.00  0.00    +0.094 C 
ATOM      4  C   UNL     1      43.366  80.169  37.861  0.00  0.00    +0.110 C 
ATOM      5  N   UNL     1      44.237  79.636  38.910  0.00  0.00    -0.289 N 
ATOM      6  C   UNL     1      44.050  78.355  39.493  0.00  0.00    +0.112 C 
ATOM      7  C   UNL     1      42.540  78.131  39.529  0.00  0.00    +0.097 C 
ATOM      8  C   UNL     1      44.607  78.089  40.800  0.00  0.00    -0.007 A 
ATOM      9  C   UNL     1      44.378  76.751  41.114  0.00  0.00    -0.003 A 
ATOM     10  C   UNL     1      44.794  76.201  42.296  0.00  0.00    -0.000 A 
ATOM     11  C   UNL     1      45.465  76.971  43.224  0.00  0.00    -0.000 A 
ATOM     12  C   UNL     1      45.698  78.297  42.925  0.00  0.00    -0.004 A 
ATOM     13  C   UNL     1      45.277  78.850  41.733  0.00  0.00    -0.020 A 
ATOM     14  C   UNL     1      45.661  80.252  41.701  0.00  0.00    +0.055 C 
ATOM     15  C   UNL     1      45.864  80.861  40.397  0.00  0.00    +0.014 A 
ATOM     16  C   UNL     1      45.248  80.603  39.194  0.00  0.00    +0.128 A 
ATOM     17  N   UNL     1      45.592  81.312  38.076  0.00  0.00    -0.229 NA
ATOM     18  C   UNL     1      46.524  82.262  38.116  0.00  0.00    +0.100 A 
ATOM     19  C   UNL     1      47.161  82.547  39.302  0.00  0.00    +0.020 A 
ATOM     20  C   UNL     1      46.833  81.849  40.439  0.00  0.00    +0.000 A 
ENDROOT
TORSDOF 0
