REMARK  Name = Mirvetuximab_soravtansine
REMARK  16 active torsions:
REMARK  status: ('A' for Active; 'I' for Inactive)
REMARK    1  A    between atoms: C_6  and  O_58
REMARK    2  A    between atoms: C_16  and  O_18
REMARK    3  A    between atoms: C_25  and  O_30
REMARK    4  A    between atoms: O_30  and  C_31
REMARK    5  A    between atoms: C_31  and  C_33
REMARK    6  A    between atoms: C_33  and  N_35
REMARK    7  A    between atoms: C_37  and  C_39
REMARK    8  A    between atoms: C_39  and  C_40
REMARK    9  A    between atoms: C_40  and  C_41
REMARK   10  A    between atoms: C_41  and  S_44
REMARK   11  A    between atoms: S_44  and  S_45
REMARK   12  A    between atoms: S_45  and  C_46
REMARK   13  A    between atoms: C_46  and  C_47
REMARK   14  A    between atoms: C_47  and  C_48
REMARK   15  A    between atoms: C_48  and  C_49
REMARK   16  A    between atoms: C_48  and  S_52
REMARK                            x       y       z     vdW  Elec       q    Type
REMARK                         _______ _______ _______ _____ _____    ______ ____
ROOT
ATOM      1  C   UNL     1      42.743  77.987  42.362  0.00  0.00    +0.006 C 
ATOM      2  C   UNL     1      43.905  77.702  41.420  0.00  0.00    +0.070 C 
ATOM      3  C   UNL     1      43.771  78.681  40.269  0.00  0.00    +0.177 C 
ATOM      4  C   UNL     1      44.969  79.540  40.044  0.00  0.00    +0.098 C 
ATOM      5  C   UNL     1      44.616  80.656  39.060  0.00  0.00    +0.239 C 
ATOM      6  C   UNL     1      45.857  81.232  38.405  0.00  0.00    +0.184 C 
ATOM      7  C   UNL     1      45.818  82.723  38.321  0.00  0.00    +0.007 C 
ATOM      8  C   UNL     1      45.926  83.570  39.308  0.00  0.00    -0.003 C 
ATOM      9  C   UNL     1      46.109  83.385  40.728  0.00  0.00    -0.008 C 
ATOM     10  C   UNL     1      47.180  83.120  41.435  0.00  0.00    -0.040 C 
ATOM     11  C   UNL     1      48.564  82.930  40.950  0.00  0.00    +0.048 C 
ATOM     12  C   UNL     1      49.353  81.959  41.767  0.00  0.00    -0.014 A 
ATOM     13  C   UNL     1      49.309  80.589  41.802  0.00  0.00    +0.012 A 
ATOM     14  C   UNL     1      50.144  79.934  42.711  0.00  0.00    +0.067 A 
ATOM     15  C   UNL     1      50.993  80.698  43.548  0.00  0.00    +0.105 A 
ATOM     16  C   UNL     1      51.050  82.068  43.526  0.00  0.00    +0.150 A 
ATOM     17  C   UNL     1      50.222  82.673  42.627  0.00  0.00    +0.034 A 
ATOM     18 CL   UNL     1      52.090  79.931  44.722  0.00  0.00    -0.078 Cl
ATOM     19  N   UNL     1      50.328  78.538  42.979  0.00  0.00    -0.256 N 
ATOM     20  C   UNL     1      49.333  77.502  43.175  0.00  0.00    +0.233 C 
ATOM     21  O   UNL     1      49.754  76.346  43.494  0.00  0.00    -0.274 OA
ATOM     22  C   UNL     1      47.878  77.735  43.020  0.00  0.00    +0.132 C 
ATOM     23  C   UNL     1      47.058  76.498  43.291  0.00  0.00    +0.205 C 
ATOM     24  C   UNL     1      45.614  76.680  42.832  0.00  0.00    +0.155 C 
ATOM     25  C   UNL     1      45.242  77.758  42.091  0.00  0.00    +0.147 C 
ATOM     26  O   UNL     1      45.194  77.995  43.442  0.00  0.00    -0.352 OA
ATOM     27  C   UNL     1      44.716  75.550  43.230  0.00  0.00    +0.036 C 
ATOM     28  C   UNL     1      51.741  78.039  43.096  0.00  0.00    +0.120 C 
ATOM     29  C   UNL     1      47.033  82.977  42.943  0.00  0.00    +0.027 C 
ATOM     30  N   UNL     1      43.651  80.172  38.098  0.00  0.00    -0.139 NA
ATOM     31  C   UNL     1      43.384  78.787  37.927  0.00  0.00    +0.423 C 
ATOM     32  O   UNL     1      43.021  78.332  36.804  0.00  0.00    -0.224 OA
ATOM     33  O   UNL     1      43.540  77.976  39.038  0.00  0.00    -0.437 OA
ATOM     34  O   UNL     1      43.971  81.686  39.782  0.00  0.00    -0.200 OA
ENDROOT
BRANCH   6  35
ATOM     35  O   UNL     1      47.042  80.790  38.989  0.00  0.00    -0.345 OA
ATOM     36  C   UNL     1      48.124  80.772  38.146  0.00  0.00    +0.175 C 
ENDBRANCH   6  35
BRANCH  16  37
ATOM     37  O   UNL     1      51.897  82.778  44.369  0.00  0.00    -0.471 OA
ATOM     38  C   UNL     1      52.175  84.145  44.136  0.00  0.00    +0.253 C 
ENDBRANCH  16  37
BRANCH  23  39
ATOM     39  O   UNL     1      47.632  75.341  42.764  0.00  0.00    -0.448 OA
BRANCH  39  40
ATOM     40  C   UNL     1      47.642  74.077  43.374  0.00  0.00    +0.335 C 
ATOM     41  O   UNL     1      47.062  73.954  44.466  0.00  0.00    -0.248 OA
BRANCH  40  42
ATOM     42  C   UNL     1      48.331  72.931  42.728  0.00  0.00    +0.175 C 
ATOM     43  C   UNL     1      47.877  71.667  43.412  0.00  0.00    +0.034 C 
BRANCH  42  44
ATOM     44  N   UNL     1      49.751  73.059  42.796  0.00  0.00    -0.270 N 
ATOM     45  C   UNL     1      50.491  72.742  41.538  0.00  0.00    +0.115 C 
ATOM     46  C   UNL     1      50.541  73.442  43.872  0.00  0.00    +0.226 C 
ATOM     47  O   UNL     1      49.919  73.798  44.957  0.00  0.00    -0.275 OA
BRANCH  46  48
ATOM     48  C   UNL     1      52.035  73.493  43.941  0.00  0.00    +0.086 C 
BRANCH  48  49
ATOM     49  C   UNL     1      52.457  73.954  45.329  0.00  0.00    +0.020 C 
BRANCH  49  50
ATOM     50  C   UNL     1      53.984  73.994  45.437  0.00  0.00    +0.049 C 
ATOM     51  C   UNL     1      54.602  72.646  45.379  0.00  0.00    +0.012 C 
ATOM     52  C   UNL     1      54.439  74.797  44.213  0.00  0.00    +0.012 C 
BRANCH  50  53
ATOM     53  S   UNL     1      54.469  74.902  46.926  0.00  0.00    -0.084 S 
BRANCH  53  54
ATOM     54  S   UNL     1      53.059  74.986  48.356  0.00  0.00    -0.082 S 
BRANCH  54  55
ATOM     55  C   UNL     1      52.949  74.217  49.850  0.00  0.00    +0.071 C 
BRANCH  55  56
ATOM     56  C   UNL     1      53.682  73.132  50.487  0.00  0.00    +0.048 C 
BRANCH  56  57
ATOM     57  C   UNL     1      53.440  72.690  51.865  0.00  0.00    +0.240 C 
BRANCH  57  58
ATOM     58  S   UNL     1      54.387  71.492  52.623  0.00  0.00    +0.128 S 
ATOM     59  O   UNL     1      54.475  70.265  51.721  0.00  0.00    -0.144 OA
ATOM     60  O   UNL     1      55.852  72.000  52.745  0.00  0.00    -0.144 OA
ATOM     61  O   UNL     1      53.858  71.044  54.123  0.00  0.00    -0.046 OA
ENDBRANCH  57  58
BRANCH  57  62
ATOM     62  C   UNL     1      51.988  72.684  52.227  0.00  0.00    +0.285 C 
ATOM     63  O   UNL     1      51.245  71.835  51.707  0.00  0.00    -0.270 OA
ATOM     64  N   UNL     1      51.514  73.641  53.145  0.00  0.00    -0.086 NA
ENDBRANCH  57  62
ENDBRANCH  56  57
ENDBRANCH  55  56
ENDBRANCH  54  55
ENDBRANCH  53  54
ENDBRANCH  50  53
ENDBRANCH  49  50
ENDBRANCH  48  49
ENDBRANCH  46  48
ENDBRANCH  42  44
ENDBRANCH  40  42
ENDBRANCH  39  40
ENDBRANCH  23  39
TORSDOF 16
