REMARK  Name = Misoprostol
REMARK  14 active torsions:
REMARK  status: ('A' for Active; 'I' for Inactive)
REMARK    1  A    between atoms: C_2  and  C_3
REMARK    2  A    between atoms: C_3  and  C_4
REMARK    3  A    between atoms: C_4  and  C_5
REMARK    4  A    between atoms: C_5  and  C_7
REMARK    5  A    between atoms: C_7  and  C_8
REMARK    6  A    between atoms: C_9  and  C_10
REMARK    7  A    between atoms: C_15  and  C_16
REMARK    8  A    between atoms: C_16  and  C_17
REMARK    9  A    between atoms: C_17  and  C_18
REMARK   10  A    between atoms: C_18  and  C_19
REMARK   11  A    between atoms: C_19  and  C_20
REMARK   12  A    between atoms: C_20  and  C_21
REMARK   13  A    between atoms: C_21  and  C_22
REMARK   14  A    between atoms: C_22  and  O_24
REMARK                            x       y       z     vdW  Elec       q    Type
REMARK                         _______ _______ _______ _____ _____    ______ ____
ROOT
ATOM      1  C   UNL     1      44.995  80.372  40.505  0.00  0.00    +0.059 C 
ATOM      2  C   UNL     1      44.000  80.788  39.428  0.00  0.00    +0.164 C 
ATOM      3  C   UNL     1      44.370  79.878  38.292  0.00  0.00    +0.098 C 
ATOM      4  C   UNL     1      45.010  78.686  38.899  0.00  0.00    +0.153 C 
ATOM      5  O   UNL     1      45.474  77.774  38.266  0.00  0.00    -0.296 OA
ATOM      6  C   UNL     1      44.963  78.840  40.345  0.00  0.00    +0.064 C 
ATOM      7  O   UNL     1      44.222  82.132  39.103  0.00  0.00    -0.222 OA
ENDROOT
BRANCH   1   9
ATOM      8  C   UNL     1      47.037  81.805  40.605  0.00  0.00    -0.028 C 
ATOM      9  C   UNL     1      46.359  80.785  40.107  0.00  0.00    -0.028 C 
BRANCH   8  10
ATOM     10  C   UNL     1      48.388  81.783  41.144  0.00  0.00    +0.056 C 
BRANCH  10  11
ATOM     11  C   UNL     1      48.663  82.986  42.065  0.00  0.00    +0.131 C 
ATOM     12  C   UNL     1      48.867  84.176  41.167  0.00  0.00    +0.033 C 
ATOM     13  O   UNL     1      47.501  83.147  42.818  0.00  0.00    -0.225 OA
BRANCH  11  14
ATOM     14  C   UNL     1      49.856  82.629  42.876  0.00  0.00    +0.031 C 
BRANCH  14  15
ATOM     15  C   UNL     1      50.195  83.565  43.976  0.00  0.00    +0.003 C 
BRANCH  15  17
ATOM     16  C   UNL     1      51.544  84.156  45.943  0.00  0.00    +0.000 C 
ATOM     17  C   UNL     1      51.384  83.151  44.801  0.00  0.00    +0.000 C 
ENDBRANCH  15  17
ENDBRANCH  14  15
ENDBRANCH  11  14
ENDBRANCH  10  11
ENDBRANCH   8  10
ENDBRANCH   1   9
BRANCH   6  18
ATOM     18  C   UNL     1      43.776  78.275  41.024  0.00  0.00    +0.008 C 
BRANCH  18  19
ATOM     19  C   UNL     1      43.905  77.905  42.451  0.00  0.00    +0.000 C 
BRANCH  19  20
ATOM     20  C   UNL     1      44.794  76.731  42.716  0.00  0.00    +0.000 C 
BRANCH  20  21
ATOM     21  C   UNL     1      45.434  76.761  44.078  0.00  0.00    +0.001 C 
BRANCH  21  22
ATOM     22  C   UNL     1      44.514  76.617  45.229  0.00  0.00    +0.012 C 
BRANCH  22  23
ATOM     23  C   UNL     1      44.521  75.311  45.943  0.00  0.00    +0.110 C 
BRANCH  23  24
ATOM     24  C   UNL     1      44.943  75.423  47.352  0.00  0.00    +0.317 C 
ATOM     25  O   UNL     1      45.190  76.540  47.849  0.00  0.00    -0.250 OA
BRANCH  24  26
ATOM     26  O   UNL     1      45.085  74.325  48.183  0.00  0.00    -0.444 OA
ATOM     27  C   UNL     1      45.554  74.393  49.511  0.00  0.00    +0.256 C 
ENDBRANCH  24  26
ENDBRANCH  23  24
ENDBRANCH  22  23
ENDBRANCH  21  22
ENDBRANCH  20  21
ENDBRANCH  19  20
ENDBRANCH  18  19
ENDBRANCH   6  18
TORSDOF 14
