REMARK  Name = Mitapivat
REMARK  6 active torsions:
REMARK  status: ('A' for Active; 'I' for Inactive)
REMARK    1  A    between atoms: C_3  and  C_4
REMARK    2  A    between atoms: C_4  and  N_5
REMARK    3  A    between atoms: C_11  and  C_13
REMARK    4  A    between atoms: C_16  and  N_19
REMARK    5  A    between atoms: N_19  and  S_20
REMARK    6  A    between atoms: S_20  and  C_23
REMARK                            x       y       z     vdW  Elec       q    Type
REMARK                         _______ _______ _______ _____ _____    ______ ____
ROOT
ATOM      1  C   UNL     1      43.705  77.830  40.282  0.00  0.00    +0.054 A 
ATOM      2  C   UNL     1      43.731  78.589  39.131  0.00  0.00    +0.006 A 
ATOM      3  C   UNL     1      44.815  79.401  38.927  0.00  0.00    +0.018 A 
ATOM      4  C   UNL     1      45.862  79.479  39.821  0.00  0.00    +0.091 A 
ATOM      5  C   UNL     1      45.842  78.736  40.954  0.00  0.00    +0.018 A 
ATOM      6  C   UNL     1      44.749  77.910  41.172  0.00  0.00    +0.006 A 
ENDROOT
BRANCH   1  13
ATOM      7  N   UNL     1      39.663  75.995  37.683  0.00  0.00    -0.270 NA
ATOM      8  C   UNL     1      39.726  75.477  39.009  0.00  0.00    +0.094 C 
ATOM      9  C   UNL     1      40.145  76.593  39.970  0.00  0.00    +0.111 C 
ATOM     10  N   UNL     1      41.511  76.962  39.556  0.00  0.00    -0.273 N 
ATOM     11  C   UNL     1      41.688  77.334  38.172  0.00  0.00    +0.111 C 
ATOM     12  C   UNL     1      40.324  77.239  37.492  0.00  0.00    +0.094 C 
ATOM     13  C   UNL     1      42.547  76.947  40.522  0.00  0.00    +0.249 C 
ATOM     14  O   UNL     1      42.484  76.228  41.512  0.00  0.00    -0.270 OA
BRANCH   7  15
ATOM     15  C   UNL     1      40.071  75.019  36.715  0.00  0.00    +0.072 C 
BRANCH  15  18
ATOM     16  C   UNL     1      37.927  74.417  35.533  0.00  0.00    +0.001 C 
ATOM     17  C   UNL     1      38.077  75.885  35.271  0.00  0.00    +0.001 C 
ATOM     18  C   UNL     1      39.292  75.045  35.432  0.00  0.00    +0.016 C 
ENDBRANCH  15  18
ENDBRANCH   7  15
ENDBRANCH   1  13
BRANCH   4  19
ATOM     19  N   UNL     1      46.895  80.367  39.513  0.00  0.00    -0.097 NA
BRANCH  19  20
ATOM     20  S   UNL     1      46.682  82.055  39.647  0.00  0.00    +0.094 S 
ATOM     21  O   UNL     1      45.219  82.417  39.607  0.00  0.00    -0.148 OA
ATOM     22  O   UNL     1      47.327  82.684  38.416  0.00  0.00    -0.148 OA
BRANCH  20  23
ATOM     23  C   UNL     1      47.439  82.701  41.082  0.00  0.00    +0.145 A 
ATOM     24  C   UNL     1      46.748  83.572  41.899  0.00  0.00    +0.022 A 
ATOM     25  C   UNL     1      47.388  84.100  43.025  0.00  0.00    +0.001 A 
ATOM     26  C   UNL     1      48.688  83.756  43.316  0.00  0.00    +0.002 A 
ATOM     27  C   UNL     1      49.409  82.886  42.521  0.00  0.00    +0.019 A 
ATOM     28  C   UNL     1      48.745  82.383  41.417  0.00  0.00    +0.100 A 
ATOM     29  N   UNL     1      49.412  81.536  40.615  0.00  0.00    -0.242 NA
ATOM     30  C   UNL     1      50.680  81.195  40.884  0.00  0.00    +0.099 A 
ATOM     31  C   UNL     1      51.370  81.680  41.978  0.00  0.00    +0.021 A 
ATOM     32  C   UNL     1      50.712  82.547  42.814  0.00  0.00    +0.003 A 
ENDBRANCH  20  23
ENDBRANCH  19  20
ENDBRANCH   4  19
TORSDOF 6
