REMARK  Name = Mitiglinide
REMARK  5 active torsions:
REMARK  status: ('A' for Active; 'I' for Inactive)
REMARK    1  A    between atoms: C_10  and  C_12
REMARK    2  A    between atoms: C_12  and  C_13
REMARK    3  A    between atoms: C_13  and  C_14
REMARK    4  A    between atoms: C_13  and  C_21
REMARK    5  A    between atoms: C_14  and  C_15
REMARK                            x       y       z     vdW  Elec       q    Type
REMARK                         _______ _______ _______ _____ _____    ______ ____
ROOT
ATOM      1  C   UNL     1      48.589  80.383  41.414  0.00  0.00    +0.097 C 
ENDROOT
BRANCH   1  11
ATOM      2  C   UNL     1      43.420  76.421  39.850  0.00  0.00    +0.000 C 
ATOM      3  C   UNL     1      43.692  77.376  38.715  0.00  0.00    +0.000 C 
ATOM      4  C   UNL     1      44.200  78.693  39.294  0.00  0.00    +0.002 C 
ATOM      5  C   UNL     1      44.042  78.686  40.777  0.00  0.00    +0.022 C 
ATOM      6  C   UNL     1      44.742  79.946  41.330  0.00  0.00    +0.093 C 
ATOM      7  N   UNL     1      46.132  79.656  41.163  0.00  0.00    -0.280 N 
ATOM      8  C   UNL     1      46.286  78.160  41.089  0.00  0.00    +0.093 C 
ATOM      9  C   UNL     1      44.931  77.631  41.393  0.00  0.00    +0.022 C 
ATOM     10  C   UNL     1      44.638  76.312  40.717  0.00  0.00    +0.002 C 
ATOM     11  C   UNL     1      47.206  80.542  41.094  0.00  0.00    +0.226 C 
ATOM     12  O   UNL     1      46.891  81.734  40.655  0.00  0.00    -0.275 OA
ENDBRANCH   1  11
BRANCH   1  13
ATOM     13  C   UNL     1      49.332  81.348  42.243  0.00  0.00    +0.117 C 
BRANCH  13  14
ATOM     14  C   UNL     1      50.751  81.009  42.491  0.00  0.00    +0.365 C 
ATOM     15  O   UNL     1      51.190  80.724  43.634  0.00  0.00    -0.246 OA
ATOM     16  O   UNL     1      51.664  81.001  41.420  0.00  0.00    -0.246 OA
ENDBRANCH  13  14
BRANCH  13  17
ATOM     17  C   UNL     1      49.399  82.737  41.547  0.00  0.00    +0.038 C 
BRANCH  17  18
ATOM     18  C   UNL     1      49.214  83.829  42.523  0.00  0.00    -0.022 A 
ATOM     19  C   UNL     1      47.957  84.319  42.765  0.00  0.00    -0.004 A 
ATOM     20  C   UNL     1      47.719  85.321  43.651  0.00  0.00    -0.000 A 
ATOM     21  C   UNL     1      48.757  85.884  44.345  0.00  0.00    -0.000 A 
ATOM     22  C   UNL     1      50.028  85.412  44.121  0.00  0.00    -0.000 A 
ATOM     23  C   UNL     1      50.283  84.395  43.225  0.00  0.00    -0.004 A 
ENDBRANCH  17  18
ENDBRANCH  13  17
ENDBRANCH   1  13
TORSDOF 5
