REMARK  Name = Mitomycin
REMARK  4 active torsions:
REMARK  status: ('A' for Active; 'I' for Inactive)
REMARK    1  A    between atoms: C_14  and  O_21
REMARK    2  A    between atoms: C_15  and  C_16
REMARK    3  A    between atoms: C_16  and  O_17
REMARK    4  A    between atoms: O_17  and  C_18
REMARK                            x       y       z     vdW  Elec       q    Type
REMARK                         _______ _______ _______ _____ _____    ______ ____
ROOT
ATOM      1  C   UNL     1      48.693  82.849  40.324  0.00  0.00    +0.036 C 
ATOM      2  C   UNL     1      47.482  81.992  40.190  0.00  0.00    +0.038 C 
ATOM      3  C   UNL     1      46.485  82.397  39.428  0.00  0.00    +0.127 C 
ATOM      4  C   UNL     1      45.312  81.555  39.306  0.00  0.00    +0.210 C 
ATOM      5  O   UNL     1      44.400  81.992  38.571  0.00  0.00    -0.285 OA
ATOM      6  C   UNL     1      45.209  80.270  40.007  0.00  0.00    +0.042 C 
ATOM      7  C   UNL     1      46.209  79.843  40.786  0.00  0.00    +0.088 C 
ATOM      8  C   UNL     1      47.379  80.724  40.882  0.00  0.00    +0.206 C 
ATOM      9  O   UNL     1      48.335  80.316  41.625  0.00  0.00    -0.286 OA
ATOM     10  N   UNL     1      45.901  78.593  41.392  0.00  0.00    -0.284 N 
ATOM     11  C   UNL     1      46.402  77.482  42.162  0.00  0.00    +0.112 C 
ATOM     12  C   UNL     1      45.667  76.314  41.570  0.00  0.00    +0.113 C 
ATOM     13  C   UNL     1      44.516  76.877  40.772  0.00  0.00    +0.133 C 
ATOM     14  C   UNL     1      44.519  78.326  41.166  0.00  0.00    +0.177 C 
ATOM     15  C   UNL     1      44.176  79.242  40.040  0.00  0.00    +0.115 C 
ATOM     16  N   UNL     1      45.635  76.264  40.128  0.00  0.00    -0.212 NA
ATOM     17  N   UNL     1      46.575  83.656  38.736  0.00  0.00    -0.125 NA
ENDROOT
BRANCH  14  18
ATOM     18  O   UNL     1      43.745  78.502  42.310  0.00  0.00    -0.337 OA
ATOM     19  C   UNL     1      43.413  77.356  42.974  0.00  0.00    +0.176 C 
ENDBRANCH  14  18
BRANCH  15  20
ATOM     20  C   UNL     1      43.843  78.565  38.774  0.00  0.00    +0.219 C 
BRANCH  20  21
ATOM     21  O   UNL     1      42.671  77.811  38.853  0.00  0.00    -0.432 OA
BRANCH  21  22
ATOM     22  C   UNL     1      41.681  77.876  37.868  0.00  0.00    +0.441 C 
ATOM     23  O   UNL     1      40.551  77.371  38.046  0.00  0.00    -0.223 OA
ATOM     24  N   UNL     1      41.908  78.517  36.620  0.00  0.00    -0.048 NA
ENDBRANCH  21  22
ENDBRANCH  20  21
ENDBRANCH  15  20
TORSDOF 4
