REMARK  Name = Mitoxantrone
REMARK  12 active torsions:
REMARK  status: ('A' for Active; 'I' for Inactive)
REMARK    1  A    between atoms: C_3  and  N_26
REMARK    2  A    between atoms: C_6  and  N_7
REMARK    3  A    between atoms: N_7  and  C_8
REMARK    4  A    between atoms: C_8  and  C_9
REMARK    5  A    between atoms: C_9  and  N_10
REMARK    6  A    between atoms: N_10  and  C_11
REMARK    7  A    between atoms: C_11  and  C_12
REMARK    8  A    between atoms: N_26  and  C_27
REMARK    9  A    between atoms: C_27  and  C_28
REMARK   10  A    between atoms: C_28  and  N_29
REMARK   11  A    between atoms: N_29  and  C_30
REMARK   12  A    between atoms: C_30  and  C_31
REMARK                            x       y       z     vdW  Elec       q    Type
REMARK                         _______ _______ _______ _____ _____    ______ ____
ROOT
ATOM      1  C   UNL     1      43.589  76.729  41.277  0.00  0.00    +0.018 A 
ATOM      2  C   UNL     1      42.935  77.087  40.127  0.00  0.00    +0.018 A 
ATOM      3  C   UNL     1      43.294  78.203  39.382  0.00  0.00    +0.069 A 
ATOM      4  C   UNL     1      44.354  78.950  39.855  0.00  0.00    +0.058 A 
ATOM      5  C   UNL     1      45.024  78.583  41.033  0.00  0.00    +0.058 A 
ATOM      6  C   UNL     1      44.660  77.476  41.764  0.00  0.00    +0.069 A 
ATOM      7  C   UNL     1      46.139  79.386  41.508  0.00  0.00    +0.200 C 
ATOM      8  O   UNL     1      46.788  79.123  42.555  0.00  0.00    -0.286 OA
ATOM      9  C   UNL     1      46.575  80.588  40.761  0.00  0.00    +0.084 A 
ATOM     10  C   UNL     1      47.641  81.343  41.227  0.00  0.00    +0.199 A 
ATOM     11  C   UNL     1      48.034  82.458  40.517  0.00  0.00    +0.045 A 
ATOM     12  C   UNL     1      47.386  82.832  39.357  0.00  0.00    +0.045 A 
ATOM     13  C   UNL     1      46.319  82.068  38.899  0.00  0.00    +0.199 A 
ATOM     14  C   UNL     1      45.925  80.948  39.613  0.00  0.00    +0.084 A 
ATOM     15  C   UNL     1      44.791  80.135  39.125  0.00  0.00    +0.200 C 
ATOM     16  O   UNL     1      44.252  80.538  38.062  0.00  0.00    -0.286 OA
ATOM     17  O   UNL     1      45.655  82.429  37.733  0.00  0.00    -0.286 OA
ATOM     18  O   UNL     1      48.290  80.954  42.405  0.00  0.00    -0.286 OA
ENDROOT
BRANCH   6  19
ATOM     19  N   UNL     1      45.251  77.019  42.953  0.00  0.00    -0.236 NA
BRANCH  19  20
ATOM     20  C   UNL     1      45.248  75.594  43.283  0.00  0.00    +0.131 C 
BRANCH  20  21
ATOM     21  C   UNL     1      45.935  75.346  44.594  0.00  0.00    +0.112 C 
BRANCH  21  22
ATOM     22  N   UNL     1      45.547  76.280  45.611  0.00  0.00    -0.213 NA
BRANCH  22  23
ATOM     23  C   UNL     1      45.804  75.832  46.951  0.00  0.00    +0.124 C 
BRANCH  23  24
ATOM     24  C   UNL     1      45.775  77.032  47.876  0.00  0.00    +0.201 C 
ATOM     25  O   UNL     1      47.099  77.287  48.244  0.00  0.00    -0.219 OA
ENDBRANCH  23  24
ENDBRANCH  22  23
ENDBRANCH  21  22
ENDBRANCH  20  21
ENDBRANCH  19  20
ENDBRANCH   6  19
BRANCH   3  26
ATOM     26  N   UNL     1      42.570  78.516  38.207  0.00  0.00    -0.236 NA
BRANCH  26  27
ATOM     27  C   UNL     1      41.106  78.653  38.372  0.00  0.00    +0.131 C 
BRANCH  27  28
ATOM     28  C   UNL     1      40.350  78.027  37.224  0.00  0.00    +0.112 C 
BRANCH  28  29
ATOM     29  N   UNL     1      41.055  76.838  36.847  0.00  0.00    -0.213 NA
BRANCH  29  30
ATOM     30  C   UNL     1      40.242  75.970  36.052  0.00  0.00    +0.124 C 
BRANCH  30  31
ATOM     31  C   UNL     1      39.171  75.298  36.890  0.00  0.00    +0.201 C 
ATOM     32  O   UNL     1      39.482  73.914  36.894  0.00  0.00    -0.219 OA
ENDBRANCH  30  31
ENDBRANCH  29  30
ENDBRANCH  28  29
ENDBRANCH  27  28
ENDBRANCH  26  27
ENDBRANCH   3  26
TORSDOF 12
