REMARK  Name = Mitomycin_A
REMARK  5 active torsions:
REMARK  status: ('A' for Active; 'I' for Inactive)
REMARK    1  A    between atoms: C_3  and  O_24
REMARK    2  A    between atoms: C_14  and  O_21
REMARK    3  A    between atoms: C_15  and  C_16
REMARK    4  A    between atoms: C_16  and  O_17
REMARK    5  A    between atoms: O_17  and  C_18
REMARK                            x       y       z     vdW  Elec       q    Type
REMARK                         _______ _______ _______ _____ _____    ______ ____
ROOT
ATOM      1  C   UNL     1      47.445  83.261  39.407  0.00  0.00    +0.038 C 
ATOM      2  C   UNL     1      46.873  81.967  39.848  0.00  0.00    +0.055 C 
ATOM      3  C   UNL     1      47.468  81.323  40.833  0.00  0.00    +0.176 C 
ATOM      4  C   UNL     1      46.932  80.052  41.289  0.00  0.00    +0.227 C 
ATOM      5  O   UNL     1      47.459  79.401  42.218  0.00  0.00    -0.284 OA
ATOM      6  C   UNL     1      45.747  79.501  40.659  0.00  0.00    +0.044 C 
ATOM      7  C   UNL     1      45.132  80.129  39.669  0.00  0.00    +0.088 C 
ATOM      8  C   UNL     1      45.675  81.421  39.204  0.00  0.00    +0.208 C 
ATOM      9  O   UNL     1      45.117  82.044  38.267  0.00  0.00    -0.285 OA
ATOM     10  N   UNL     1      44.016  79.406  39.228  0.00  0.00    -0.284 N 
ATOM     11  C   UNL     1      43.142  79.124  38.138  0.00  0.00    +0.112 C 
ATOM     12  C   UNL     1      42.507  77.797  38.444  0.00  0.00    +0.113 C 
ATOM     13  C   UNL     1      42.841  77.465  39.874  0.00  0.00    +0.133 C 
ATOM     14  C   UNL     1      43.611  78.621  40.435  0.00  0.00    +0.177 C 
ATOM     15  C   UNL     1      44.986  78.254  40.897  0.00  0.00    +0.115 C 
ATOM     16  N   UNL     1      43.446  76.748  38.799  0.00  0.00    -0.212 NA
ENDROOT
BRANCH  14  17
ATOM     17  O   UNL     1      42.917  79.483  41.191  0.00  0.00    -0.337 OA
ATOM     18  C   UNL     1      41.937  79.084  42.022  0.00  0.00    +0.176 C 
ENDBRANCH  14  17
BRANCH   3  19
ATOM     19  O   UNL     1      48.591  81.840  41.433  0.00  0.00    -0.468 OA
ATOM     20  C   UNL     1      48.533  82.746  42.537  0.00  0.00    +0.253 C 
ENDBRANCH   3  19
BRANCH  15  21
ATOM     21  C   UNL     1      45.144  77.700  42.256  0.00  0.00    +0.219 C 
BRANCH  21  22
ATOM     22  O   UNL     1      46.300  76.910  42.432  0.00  0.00    -0.432 OA
BRANCH  22  23
ATOM     23  C   UNL     1      46.645  76.226  43.580  0.00  0.00    +0.441 C 
ATOM     24  O   UNL     1      46.175  76.705  44.672  0.00  0.00    -0.223 OA
ATOM     25  N   UNL     1      47.461  75.070  43.578  0.00  0.00    -0.048 NA
ENDBRANCH  22  23
ENDBRANCH  21  22
ENDBRANCH  15  21
TORSDOF 5
