REMARK  Name = Mivacurium
REMARK  30 active torsions:
REMARK  status: ('A' for Active; 'I' for Inactive)
REMARK    1  A    between atoms: N_2  and  C_29
REMARK    2  A    between atoms: C_7  and  O_27
REMARK    3  A    between atoms: C_8  and  O_25
REMARK    4  A    between atoms: C_11  and  C_12
REMARK    5  A    between atoms: C_12  and  C_13
REMARK    6  A    between atoms: C_15  and  O_23
REMARK    7  A    between atoms: C_16  and  O_21
REMARK    8  A    between atoms: C_17  and  O_19
REMARK    9  A    between atoms: C_29  and  C_30
REMARK   10  A    between atoms: C_30  and  C_31
REMARK   11  A    between atoms: C_31  and  O_32
REMARK   12  A    between atoms: O_32  and  C_33
REMARK   13  A    between atoms: C_33  and  C_35
REMARK   14  A    between atoms: C_35  and  C_36
REMARK   15  A    between atoms: C_36  and  C_37
REMARK   16  A    between atoms: C_38  and  C_39
REMARK   17  A    between atoms: C_39  and  C_40
REMARK   18  A    between atoms: C_40  and  C_41
REMARK   19  A    between atoms: C_41  and  O_43
REMARK   20  A    between atoms: O_43  and  C_44
REMARK   21  A    between atoms: C_44  and  C_45
REMARK   22  A    between atoms: C_45  and  C_46
REMARK   23  A    between atoms: C_46  and  N_47
REMARK   24  A    between atoms: C_52  and  O_72
REMARK   25  A    between atoms: C_53  and  O_70
REMARK   26  A    between atoms: C_56  and  C_57
REMARK   27  A    between atoms: C_57  and  C_58
REMARK   28  A    between atoms: C_60  and  O_68
REMARK   29  A    between atoms: C_61  and  O_66
REMARK   30  A    between atoms: C_62  and  O_64
REMARK                            x       y       z     vdW  Elec       q    Type
REMARK                         _______ _______ _______ _____ _____    ______ ____
ROOT
ATOM      1  C   UNL     1      41.007  77.302  37.696  0.00  0.00    -0.030 C 
ATOM      2  C   UNL     1      40.514  76.514  36.834  0.00  0.00    -0.030 C 
ENDROOT
BRANCH   2   3
ATOM      3  C   UNL     1      39.559  75.450  36.869  0.00  0.00    +0.037 C 
BRANCH   3   4
ATOM      4  C   UNL     1      39.134  74.653  35.717  0.00  0.00    +0.114 C 
BRANCH   4   5
ATOM      5  C   UNL     1      38.025  73.722  36.145  0.00  0.00    +0.317 C 
ATOM      6  O   UNL     1      36.916  74.156  36.522  0.00  0.00    -0.250 OA
BRANCH   5   7
ATOM      7  O   UNL     1      38.279  72.378  36.097  0.00  0.00    -0.449 OA
BRANCH   7   8
ATOM      8  C   UNL     1      39.338  71.747  35.463  0.00  0.00    +0.206 C 
BRANCH   8   9
ATOM      9  C   UNL     1      39.384  70.291  35.801  0.00  0.00    +0.025 C 
BRANCH   9  10
ATOM     10  C   UNL     1      38.218  69.463  35.532  0.00  0.00    -0.069 C 
BRANCH  10  11
ATOM     11  N   UNL     1      36.903  69.915  35.449  0.00  0.00    +0.393 N 
ATOM     12  C   UNL     1      36.786  71.124  36.307  0.00  0.00    -0.068 C 
ATOM     13  C   UNL     1      35.357  71.263  36.823  0.00  0.00    +0.004 C 
ATOM     14  C   UNL     1      34.533  71.363  35.593  0.00  0.00    -0.027 A 
ATOM     15  C   UNL     1      33.303  71.982  35.676  0.00  0.00    +0.035 A 
ATOM     16  C   UNL     1      32.480  72.147  34.588  0.00  0.00    +0.172 A 
ATOM     17  C   UNL     1      32.897  71.679  33.364  0.00  0.00    +0.172 A 
ATOM     18  C   UNL     1      34.147  71.051  33.278  0.00  0.00    +0.034 A 
ATOM     19  C   UNL     1      34.973  70.882  34.364  0.00  0.00    -0.042 A 
ATOM     20  C   UNL     1      36.304  70.193  34.203  0.00  0.00    -0.027 C 
ATOM     21  C   UNL     1      36.114  68.923  36.223  0.00  0.00    -0.095 C 
BRANCH  16  22
ATOM     22  O   UNL     1      31.241  72.765  34.656  0.00  0.00    -0.468 OA
ATOM     23  C   UNL     1      31.197  74.169  34.796  0.00  0.00    +0.253 C 
ENDBRANCH  16  22
BRANCH  17  24
ATOM     24  O   UNL     1      32.085  71.826  32.230  0.00  0.00    -0.468 OA
ATOM     25  C   UNL     1      32.076  70.779  31.284  0.00  0.00    +0.253 C 
ENDBRANCH  17  24
BRANCH  20  26
ATOM     26  C   UNL     1      36.366  69.215  33.108  0.00  0.00    +0.011 C 
BRANCH  26  27
ATOM     27  C   UNL     1      36.868  69.596  31.782  0.00  0.00    -0.018 A 
ATOM     28  C   UNL     1      35.988  69.915  30.743  0.00  0.00    +0.036 A 
ATOM     29  C   UNL     1      36.393  70.282  29.484  0.00  0.00    +0.175 A 
ATOM     30  C   UNL     1      37.738  70.342  29.220  0.00  0.00    +0.206 A 
ATOM     31  C   UNL     1      38.649  70.035  30.210  0.00  0.00    +0.175 A 
ATOM     32  C   UNL     1      38.198  69.671  31.460  0.00  0.00    +0.036 A 
BRANCH  29  33
ATOM     33  O   UNL     1      35.453  70.592  28.481  0.00  0.00    -0.468 OA
ATOM     34  C   UNL     1      34.121  70.939  28.843  0.00  0.00    +0.253 C 
ENDBRANCH  29  33
BRANCH  30  35
ATOM     35  O   UNL     1      38.222  70.708  27.967  0.00  0.00    -0.465 OA
ATOM     36  C   UNL     1      38.954  69.861  27.127  0.00  0.00    +0.253 C 
ENDBRANCH  30  35
BRANCH  31  37
ATOM     37  O   UNL     1      40.033  70.094  29.943  0.00  0.00    -0.468 OA
ATOM     38  C   UNL     1      40.891  70.482  30.994  0.00  0.00    +0.253 C 
ENDBRANCH  31  37
ENDBRANCH  26  27
ENDBRANCH  20  26
ENDBRANCH  10  11
ENDBRANCH   9  10
ENDBRANCH   8   9
ENDBRANCH   7   8
ENDBRANCH   5   7
ENDBRANCH   4   5
ENDBRANCH   3   4
ENDBRANCH   2   3
BRANCH   1  39
ATOM     39  C   UNL     1      42.175  78.180  37.696  0.00  0.00    +0.037 C 
BRANCH  39  40
ATOM     40  C   UNL     1      42.095  78.908  39.065  0.00  0.00    +0.114 C 
BRANCH  40  41
ATOM     41  C   UNL     1      43.166  79.911  39.121  0.00  0.00    +0.317 C 
ATOM     42  O   UNL     1      42.994  81.132  38.984  0.00  0.00    -0.250 OA
BRANCH  41  43
ATOM     43  O   UNL     1      44.456  79.438  39.347  0.00  0.00    -0.449 OA
BRANCH  43  44
ATOM     44  C   UNL     1      44.848  78.589  40.392  0.00  0.00    +0.206 C 
BRANCH  44  45
ATOM     45  C   UNL     1      45.582  79.448  41.431  0.00  0.00    +0.025 C 
BRANCH  45  46
ATOM     46  C   UNL     1      46.678  80.155  40.667  0.00  0.00    -0.069 C 
BRANCH  46  48
ATOM     47  C   UNL     1      47.450  82.331  40.157  0.00  0.00    -0.095 C 
ATOM     48  N   UNL     1      47.029  81.446  41.242  0.00  0.00    +0.393 N 
ATOM     49  C   UNL     1      45.889  82.040  41.869  0.00  0.00    -0.068 C 
ATOM     50  C   UNL     1      46.117  83.380  42.466  0.00  0.00    +0.004 C 
ATOM     51  C   UNL     1      47.489  83.641  42.892  0.00  0.00    -0.027 A 
ATOM     52  C   UNL     1      47.802  84.875  43.435  0.00  0.00    +0.035 A 
ATOM     53  C   UNL     1      49.094  85.166  43.843  0.00  0.00    +0.172 A 
ATOM     54  C   UNL     1      50.035  84.173  43.679  0.00  0.00    +0.172 A 
ATOM     55  C   UNL     1      49.730  82.941  43.139  0.00  0.00    +0.034 A 
ATOM     56  C   UNL     1      48.440  82.669  42.740  0.00  0.00    -0.042 A 
ATOM     57  C   UNL     1      48.113  81.332  42.166  0.00  0.00    -0.027 C 
BRANCH  54  58
ATOM     58  O   UNL     1      51.337  84.455  44.085  0.00  0.00    -0.468 OA
ATOM     59  C   UNL     1      51.969  83.698  45.077  0.00  0.00    +0.253 C 
ENDBRANCH  54  58
BRANCH  53  60
ATOM     60  O   UNL     1      49.423  86.404  44.392  0.00  0.00    -0.468 OA
ATOM     61  C   UNL     1      48.462  87.239  44.997  0.00  0.00    +0.253 C 
ENDBRANCH  53  60
BRANCH  57  62
ATOM     62  C   UNL     1      47.888  80.362  43.293  0.00  0.00    +0.011 C 
BRANCH  62  63
ATOM     63  C   UNL     1      49.145  79.700  43.718  0.00  0.00    -0.018 A 
ATOM     64  C   UNL     1      49.501  79.609  45.042  0.00  0.00    +0.036 A 
ATOM     65  C   UNL     1      50.663  79.001  45.480  0.00  0.00    +0.175 A 
ATOM     66  C   UNL     1      51.497  78.462  44.505  0.00  0.00    +0.206 A 
ATOM     67  C   UNL     1      51.177  78.531  43.168  0.00  0.00    +0.175 A 
ATOM     68  C   UNL     1      50.014  79.144  42.768  0.00  0.00    +0.036 A 
BRANCH  67  69
ATOM     69  O   UNL     1      52.035  77.983  42.239  0.00  0.00    -0.468 OA
ATOM     70  C   UNL     1      51.672  77.880  40.891  0.00  0.00    +0.253 C 
ENDBRANCH  67  69
BRANCH  66  71
ATOM     71  O   UNL     1      52.675  77.845  44.930  0.00  0.00    -0.465 OA
ATOM     72  C   UNL     1      53.838  78.653  44.939  0.00  0.00    +0.253 C 
ENDBRANCH  66  71
BRANCH  65  73
ATOM     73  O   UNL     1      50.972  78.939  46.825  0.00  0.00    -0.468 OA
ATOM     74  C   UNL     1      50.048  79.190  47.838  0.00  0.00    +0.253 C 
ENDBRANCH  65  73
ENDBRANCH  62  63
ENDBRANCH  57  62
ENDBRANCH  46  48
ENDBRANCH  45  46
ENDBRANCH  44  45
ENDBRANCH  43  44
ENDBRANCH  41  43
ENDBRANCH  40  41
ENDBRANCH  39  40
ENDBRANCH   1  39
TORSDOF 30
