REMARK  Name = Mizolastine
REMARK  3 active torsions:
REMARK  status: ('A' for Active; 'I' for Inactive)
REMARK    1  A    between atoms: N_2  and  C_3
REMARK    2  A    between atoms: N_17  and  C_18
REMARK    3  A    between atoms: C_18  and  C_19
REMARK                            x       y       z     vdW  Elec       q    Type
REMARK                         _______ _______ _______ _____ _____    ______ ____
ROOT
ATOM      1  C   UNL     1      47.619  83.175  42.400  0.00  0.00    +0.079 C 
ATOM      2  C   UNL     1      48.234  81.809  42.523  0.00  0.00    +0.041 C 
ATOM      3  C   UNL     1      47.174  80.779  42.255  0.00  0.00    +0.095 C 
ATOM      4  N   UNL     1      46.599  80.989  40.944  0.00  0.00    -0.279 N 
ATOM      5  C   UNL     1      47.163  82.094  40.178  0.00  0.00    +0.095 C 
ATOM      6  C   UNL     1      47.074  83.382  41.021  0.00  0.00    +0.041 C 
ATOM      7  C   UNL     1      45.523  80.171  40.470  0.00  0.00    +0.201 A 
ATOM      8  N   UNL     1      44.581  80.599  39.578  0.00  0.00    -0.214 NA
ATOM      9  C   UNL     1      43.684  79.635  39.321  0.00  0.00    +0.100 A 
ATOM     10  C   UNL     1      42.561  79.572  38.509  0.00  0.00    +0.021 A 
ATOM     11  C   UNL     1      41.796  78.443  38.428  0.00  0.00    +0.002 A 
ATOM     12  C   UNL     1      42.157  77.344  39.175  0.00  0.00    +0.002 A 
ATOM     13  C   UNL     1      43.289  77.423  39.987  0.00  0.00    +0.019 A 
ATOM     14  C   UNL     1      44.070  78.551  40.080  0.00  0.00    +0.080 A 
ATOM     15  N   UNL     1      45.186  78.909  40.762  0.00  0.00    -0.295 N 
ENDROOT
BRANCH   1  17
ATOM     16  C   UNL     1      48.077  85.527  43.108  0.00  0.00    +0.115 C 
ATOM     17  N   UNL     1      48.578  84.201  42.770  0.00  0.00    -0.278 N 
ATOM     18  C   UNL     1      49.948  83.874  42.782  0.00  0.00    +0.223 A 
ATOM     19  N   UNL     1      50.449  83.178  43.828  0.00  0.00    -0.212 NA
ATOM     20  C   UNL     1      51.751  82.851  43.858  0.00  0.00    +0.107 A 
ATOM     21  C   UNL     1      52.598  83.213  42.837  0.00  0.00    +0.083 A 
ATOM     22  C   UNL     1      52.060  83.926  41.776  0.00  0.00    +0.283 A 
ATOM     23  O   UNL     1      52.846  84.258  40.837  0.00  0.00    -0.265 OA
ATOM     24  N   UNL     1      50.771  84.233  41.777  0.00  0.00    -0.175 NA
ENDBRANCH   1  17
BRANCH  15  25
ATOM     25  C   UNL     1      45.902  78.058  41.667  0.00  0.00    +0.135 C 
BRANCH  25  26
ATOM     26  C   UNL     1      47.280  77.736  41.297  0.00  0.00    +0.001 A 
ATOM     27  C   UNL     1      48.261  77.802  42.262  0.00  0.00    -0.000 A 
ATOM     28  C   UNL     1      49.588  77.518  41.998  0.00  0.00    +0.029 A 
ATOM     29  C   UNL     1      49.983  77.153  40.739  0.00  0.00    +0.140 A 
ATOM     30  C   UNL     1      49.024  77.078  39.754  0.00  0.00    +0.029 A 
ATOM     31  C   UNL     1      47.686  77.366  40.026  0.00  0.00    -0.000 A 
ATOM     32  F   UNL     1      51.291  76.882  40.521  0.00  0.00    -0.204 F 
ENDBRANCH  25  26
ENDBRANCH  15  25
TORSDOF 3
