REMARK  Name = MK-08887A
REMARK  15 active torsions:
REMARK  status: ('A' for Active; 'I' for Inactive)
REMARK    1  A    between atoms: C_19  and  C_20
REMARK    2  A    between atoms: C_19  and  O_24
REMARK    3  A    between atoms: C_20  and  C_22
REMARK    4  A    between atoms: O_24  and  C_25
REMARK    5  A    between atoms: C_25  and  C_27
REMARK    6  A    between atoms: C_37  and  C_38
REMARK    7  A    between atoms: C_37  and  N_47
REMARK    8  A    between atoms: C_38  and  C_39
REMARK    9  A    between atoms: C_42  and  O_45
REMARK   10  A    between atoms: N_47  and  C_48
REMARK   11  A    between atoms: C_48  and  C_49
REMARK   12  A    between atoms: C_49  and  C_50
REMARK   13  A    between atoms: C_52  and  N_57
REMARK   14  A    between atoms: C_61  and  C_66
REMARK   15  A    between atoms: C_62  and  C_63
REMARK                            x       y       z     vdW  Elec       q    Type
REMARK                         _______ _______ _______ _____ _____    ______ ____
ROOT
ATOM      1  C   UNL     1      46.446  76.273  40.063  0.00  0.00    +0.004 C 
ATOM      2  C   UNL     1      45.162  76.885  39.710  0.00  0.00    +0.044 C 
ATOM      3  C   UNL     1      45.410  78.215  38.945  0.00  0.00    +0.004 C 
ATOM      4  C   UNL     1      45.310  79.284  40.017  0.00  0.00    +0.005 C 
ATOM      5  C   UNL     1      46.575  80.053  40.104  0.00  0.00    +0.017 C 
ATOM      6  C   UNL     1      46.484  81.244  39.147  0.00  0.00    +0.006 C 
ATOM      7  C   UNL     1      47.684  82.138  39.180  0.00  0.00    +0.022 C 
ATOM      8  C   UNL     1      48.283  82.300  40.502  0.00  0.00    -0.037 C 
ATOM      9  C   UNL     1      48.763  83.469  40.875  0.00  0.00    +0.034 C 
ATOM     10  C   UNL     1      49.363  83.665  42.179  0.00  0.00    +0.195 C 
ATOM     11  O   UNL     1      49.828  84.784  42.548  0.00  0.00    -0.287 OA
ATOM     12  C   UNL     1      49.434  82.556  43.084  0.00  0.00    +0.038 C 
ATOM     13  C   UNL     1      48.939  81.376  42.687  0.00  0.00    -0.018 C 
ATOM     14  C   UNL     1      48.324  81.098  41.406  0.00  0.00    +0.049 C 
ATOM     15  C   UNL     1      46.873  80.634  41.456  0.00  0.00    +0.102 C 
ATOM     16  C   UNL     1      46.503  79.816  42.609  0.00  0.00    +0.166 C 
ATOM     17  C   UNL     1      45.824  78.492  42.335  0.00  0.00    +0.038 C 
ATOM     18  C   UNL     1      44.817  78.647  41.275  0.00  0.00    +0.043 C 
ATOM     19  C   UNL     1      44.224  77.333  40.729  0.00  0.00    +0.188 C 
ATOM     20  C   UNL     1      43.622  79.403  41.863  0.00  0.00    +0.004 C 
ATOM     21  O   UNL     1      45.725  80.551  43.535  0.00  0.00    -0.222 OA
ATOM     22 CL   UNL     1      45.914  82.166  41.543  0.00  0.00    -0.113 Cl
ATOM     23  C   UNL     1      49.196  80.087  40.678  0.00  0.00    +0.010 C 
ENDROOT
BRANCH  19  24
ATOM     24  C   UNL     1      43.813  76.452  41.806  0.00  0.00    +0.203 C 
ATOM     25  O   UNL     1      42.585  76.512  42.069  0.00  0.00    -0.291 OA
BRANCH  24  26
ATOM     26  C   UNL     1      44.551  75.513  42.633  0.00  0.00    +0.163 C 
ATOM     27 CL   UNL     1      43.462  74.836  43.907  0.00  0.00    -0.105 Cl
ENDBRANCH  24  26
ENDBRANCH  19  24
BRANCH  19  28
ATOM     28  O   UNL     1      43.054  77.871  40.051  0.00  0.00    -0.443 OA
BRANCH  28  29
ATOM     29  C   UNL     1      42.258  77.119  39.262  0.00  0.00    +0.376 C 
ATOM     30  O   UNL     1      42.484  75.922  39.090  0.00  0.00    -0.241 OA
BRANCH  29  31
ATOM     31  C   UNL     1      41.096  77.691  38.577  0.00  0.00    +0.221 A 
ATOM     32  C   UNL     1      40.722  79.011  38.677  0.00  0.00    +0.047 A 
ATOM     33  C   UNL     1      39.596  79.182  37.905  0.00  0.00    +0.044 A 
ATOM     34  C   UNL     1      39.331  77.945  37.365  0.00  0.00    +0.180 A 
ATOM     35  O   UNL     1      40.233  77.091  37.782  0.00  0.00    -0.444 OA
ENDBRANCH  29  31
ENDBRANCH  28  29
ENDBRANCH  19  28
TORSDOF 5
REMARK  Name = MK-08887A
REMARK  15 active torsions:
REMARK  status: ('A' for Active; 'I' for Inactive)
REMARK    1  A    between atoms: C_19  and  C_20
REMARK    2  A    between atoms: C_19  and  O_24
REMARK    3  A    between atoms: C_20  and  C_22
REMARK    4  A    between atoms: O_24  and  C_25
REMARK    5  A    between atoms: C_25  and  C_27
REMARK    6  A    between atoms: C_37  and  C_38
REMARK    7  A    between atoms: C_37  and  N_47
REMARK    8  A    between atoms: C_38  and  C_39
REMARK    9  A    between atoms: C_42  and  O_45
REMARK   10  A    between atoms: N_47  and  C_48
REMARK   11  A    between atoms: C_48  and  C_49
REMARK   12  A    between atoms: C_49  and  C_50
REMARK   13  A    between atoms: C_52  and  N_57
REMARK   14  A    between atoms: C_61  and  C_66
REMARK   15  A    between atoms: C_62  and  C_63
REMARK                            x       y       z     vdW  Elec       q    Type
REMARK                         _______ _______ _______ _____ _____    ______ ____
ROOT
ATOM      1  C   UNL     1      43.809  79.155  40.675  0.00  0.00    +0.126 C 
ENDROOT
BRANCH   1   2
ATOM      2  C   UNL     1      43.977  78.707  39.272  0.00  0.00    +0.192 C 
ATOM      3  O   UNL     1      43.531  79.777  38.456  0.00  0.00    -0.217 OA
BRANCH   2   4
ATOM      4  C   UNL     1      43.124  77.531  38.931  0.00  0.00    +0.011 A 
ATOM      5  C   UNL     1      42.570  76.702  39.853  0.00  0.00    +0.018 A 
ATOM      6  C   UNL     1      41.788  75.636  39.397  0.00  0.00    +0.112 A 
ATOM      7  C   UNL     1      41.572  75.414  38.055  0.00  0.00    +0.211 A 
ATOM      8  C   UNL     1      42.132  76.253  37.118  0.00  0.00    +0.043 A 
ATOM      9  C   UNL     1      42.903  77.303  37.585  0.00  0.00    +0.002 A 
ATOM     10  O   UNL     1      40.782  74.336  37.630  0.00  0.00    -0.285 OA
BRANCH   6  11
ATOM     11  N   UNL     1      41.213  74.772  40.367  0.00  0.00    -0.168 NA
ATOM     12  C   UNL     1      39.927  75.082  40.883  0.00  0.00    +0.325 C 
ATOM     13  O   UNL     1      39.306  76.102  40.490  0.00  0.00    -0.263 OA
ENDBRANCH   6  11
ENDBRANCH   2   4
ENDBRANCH   1   2
BRANCH   1  14
ATOM     14  N   UNL     1      44.513  80.303  41.012  0.00  0.00    -0.216 NA
BRANCH  14  16
ATOM     15  C   UNL     1      46.746  80.032  39.952  0.00  0.00    +0.019 C 
ATOM     16  C   UNL     1      45.906  80.352  41.124  0.00  0.00    +0.077 C 
BRANCH  16  17
ATOM     17  C   UNL     1      46.323  81.705  41.682  0.00  0.00    +0.044 C 
BRANCH  17  18
ATOM     18  C   UNL     1      47.720  81.781  42.123  0.00  0.00    -0.021 A 
ATOM     19  C   UNL     1      48.052  81.309  43.400  0.00  0.00    -0.001 A 
ATOM     20  C   UNL     1      49.337  81.394  43.854  0.00  0.00    +0.037 A 
ATOM     21  C   UNL     1      50.342  81.938  43.085  0.00  0.00    +0.139 A 
ATOM     22  C   UNL     1      50.025  82.401  41.834  0.00  0.00    +0.037 A 
ATOM     23  C   UNL     1      48.744  82.321  41.374  0.00  0.00    -0.001 A 
BRANCH  21  24
ATOM     24  O   UNL     1      51.644  82.024  43.541  0.00  0.00    -0.471 OA
ATOM     25  C   UNL     1      52.647  82.587  42.726  0.00  0.00    +0.252 C 
ENDBRANCH  21  24
ENDBRANCH  17  18
ENDBRANCH  16  17
ENDBRANCH  14  16
ENDBRANCH   1  14
TORSDOF 8
REMARK  Name = MK-08887A
REMARK  15 active torsions:
REMARK  status: ('A' for Active; 'I' for Inactive)
REMARK    1  A    between atoms: C_19  and  C_20
REMARK    2  A    between atoms: C_19  and  O_24
REMARK    3  A    between atoms: C_20  and  C_22
REMARK    4  A    between atoms: O_24  and  C_25
REMARK    5  A    between atoms: C_25  and  C_27
REMARK    6  A    between atoms: C_37  and  C_38
REMARK    7  A    between atoms: C_37  and  N_47
REMARK    8  A    between atoms: C_38  and  C_39
REMARK    9  A    between atoms: C_42  and  O_45
REMARK   10  A    between atoms: N_47  and  C_48
REMARK   11  A    between atoms: C_48  and  C_49
REMARK   12  A    between atoms: C_49  and  C_50
REMARK   13  A    between atoms: C_52  and  N_57
REMARK   14  A    between atoms: C_61  and  C_66
REMARK   15  A    between atoms: C_62  and  C_63
REMARK                            x       y       z     vdW  Elec       q    Type
REMARK                         _______ _______ _______ _____ _____    ______ ____
ROOT
ATOM      1  C   UNL     1      46.082  78.887  41.703  0.00  0.00    +0.093 C 
ATOM      2  C   UNL     1      45.186  78.150  41.107  0.00  0.00    +0.093 C 
ENDROOT
BRANCH   2   3
ATOM      3  C   UNL     1      44.457  78.467  39.915  0.00  0.00    +0.388 C 
ATOM      4  O   UNL     1      43.614  77.571  39.510  0.00  0.00    -0.241 OA
ATOM      5  O   UNL     1      44.509  79.573  39.130  0.00  0.00    -0.241 OA
ENDBRANCH   2   3
BRANCH   1   6
ATOM      6  C   UNL     1      46.580  80.189  41.347  0.00  0.00    +0.388 C 
ATOM      7  O   UNL     1      47.479  80.726  42.102  0.00  0.00    -0.241 OA
ATOM      8  O   UNL     1      46.225  80.975  40.279  0.00  0.00    -0.241 OA
ENDBRANCH   1   6
TORSDOF 2
REMARK  Name = MK-08887A
REMARK  15 active torsions:
REMARK  status: ('A' for Active; 'I' for Inactive)
REMARK    1  A    between atoms: C_19  and  C_20
REMARK    2  A    between atoms: C_19  and  O_24
REMARK    3  A    between atoms: C_20  and  C_22
REMARK    4  A    between atoms: O_24  and  C_25
REMARK    5  A    between atoms: C_25  and  C_27
REMARK    6  A    between atoms: C_37  and  C_38
REMARK    7  A    between atoms: C_37  and  N_47
REMARK    8  A    between atoms: C_38  and  C_39
REMARK    9  A    between atoms: C_42  and  O_45
REMARK   10  A    between atoms: N_47  and  C_48
REMARK   11  A    between atoms: C_48  and  C_49
REMARK   12  A    between atoms: C_49  and  C_50
REMARK   13  A    between atoms: C_52  and  N_57
REMARK   14  A    between atoms: C_61  and  C_66
REMARK   15  A    between atoms: C_62  and  C_63
REMARK                            x       y       z     vdW  Elec       q    Type
REMARK                         _______ _______ _______ _____ _____    ______ ____
ROOT
ATOM      1  O   HOH     1      45.459  79.519  40.336  0.00  0.00    +0.000 OA
ENDROOT
TORSDOF 0
REMARK  Name = MK-08887A
REMARK  15 active torsions:
REMARK  status: ('A' for Active; 'I' for Inactive)
REMARK    1  A    between atoms: C_19  and  C_20
REMARK    2  A    between atoms: C_19  and  O_24
REMARK    3  A    between atoms: C_20  and  C_22
REMARK    4  A    between atoms: O_24  and  C_25
REMARK    5  A    between atoms: C_25  and  C_27
REMARK    6  A    between atoms: C_37  and  C_38
REMARK    7  A    between atoms: C_37  and  N_47
REMARK    8  A    between atoms: C_38  and  C_39
REMARK    9  A    between atoms: C_42  and  O_45
REMARK   10  A    between atoms: N_47  and  C_48
REMARK   11  A    between atoms: C_48  and  C_49
REMARK   12  A    between atoms: C_49  and  C_50
REMARK   13  A    between atoms: C_52  and  N_57
REMARK   14  A    between atoms: C_61  and  C_66
REMARK   15  A    between atoms: C_62  and  C_63
REMARK                            x       y       z     vdW  Elec       q    Type
REMARK                         _______ _______ _______ _____ _____    ______ ____
ROOT
ATOM      1  O   HOH     1      45.457  79.511  40.343  0.00  0.00    +0.000 OA
ENDROOT
TORSDOF 0
