REMARK  Name = MK-1439
REMARK  6 active torsions:
REMARK  status: ('A' for Active; 'I' for Inactive)
REMARK    1  A    between atoms: C_3  and  C_8
REMARK    2  A    between atoms: C_8  and  N_9
REMARK    3  A    between atoms: C_12  and  C_26
REMARK    4  A    between atoms: C_13  and  O_16
REMARK    5  A    between atoms: O_16  and  C_17
REMARK    6  A    between atoms: C_21  and  C_23
REMARK                            x       y       z     vdW  Elec       q    Type
REMARK                         _______ _______ _______ _____ _____    ______ ____
ROOT
ATOM      1  N   UNL     1      46.827  81.765  42.090  0.00  0.00    -0.284 N 
ATOM      2  C   UNL     1      46.516  82.968  42.602  0.00  0.00    +0.079 A 
ATOM      3  C   UNL     1      47.473  83.844  43.058  0.00  0.00    +0.026 A 
ATOM      4  C   UNL     1      48.837  83.521  43.011  0.00  0.00    +0.112 A 
ATOM      5  C   UNL     1      49.152  82.294  42.490  0.00  0.00    +0.205 A 
ATOM      6  C   UNL     1      48.121  81.439  42.038  0.00  0.00    +0.296 A 
ATOM      7  O   UNL     1      48.410  80.312  41.561  0.00  0.00    -0.264 OA
ENDROOT
BRANCH   4   8
ATOM      8  C   UNL     1      49.836  84.518  43.482  0.00  0.00    +0.422 C 
ATOM      9  F   UNL     1      50.421  84.060  44.683  0.00  0.00    -0.166 F 
ATOM     10  F   UNL     1      49.177  85.683  43.923  0.00  0.00    -0.166 F 
ATOM     11  F   UNL     1      50.852  84.766  42.618  0.00  0.00    -0.166 F 
ENDBRANCH   4   8
BRANCH   1  12
ATOM     12  C   UNL     1      45.788  80.851  41.610  0.00  0.00    +0.175 C 
BRANCH  12  15
ATOM     13  C   UNL     1      43.990  79.072  39.813  0.00  0.00    +0.136 C 
ATOM     14  N   UNL     1      44.660  80.308  39.441  0.00  0.00    -0.262 N 
ATOM     15  C   UNL     1      45.438  81.092  40.199  0.00  0.00    +0.169 A 
ATOM     16  N   UNL     1      45.810  82.104  39.402  0.00  0.00    -0.128 NA
ATOM     17  N   UNL     1      45.284  81.955  38.201  0.00  0.00    -0.088 NA
ATOM     18  C   UNL     1      44.554  80.833  38.193  0.00  0.00    +0.369 A 
ATOM     19  O   UNL     1      43.892  80.345  37.227  0.00  0.00    -0.243 OA
ENDBRANCH  12  15
ENDBRANCH   1  12
BRANCH   5  20
ATOM     20  O   UNL     1      50.453  81.873  42.404  0.00  0.00    -0.449 OA
BRANCH  20  21
ATOM     21  C   UNL     1      51.016  80.660  42.663  0.00  0.00    +0.147 A 
ATOM     22  C   UNL     1      50.921  79.616  41.746  0.00  0.00    +0.049 A 
ATOM     23  C   UNL     1      51.482  78.359  41.979  0.00  0.00    +0.061 A 
ATOM     24  C   UNL     1      52.149  78.165  43.168  0.00  0.00    +0.022 A 
ATOM     25  C   UNL     1      52.275  79.157  44.112  0.00  0.00    +0.072 A 
ATOM     26  C   UNL     1      51.706  80.373  43.833  0.00  0.00    +0.048 A 
ATOM     27 CL   UNL     1      51.352  77.059  40.812  0.00  0.00    -0.082 Cl
BRANCH  25  28
ATOM     28  C   UNL     1      52.987  78.919  45.359  0.00  0.00    +0.101 C 
ATOM     29  N   UNL     1      53.547  78.747  46.357  0.00  0.00    -0.191 NA
ENDBRANCH  25  28
ENDBRANCH  20  21
ENDBRANCH   5  20
TORSDOF 6
