REMARK  Name = Mobocertinib
REMARK  12 active torsions:
REMARK  status: ('A' for Active; 'I' for Inactive)
REMARK    1  A    between atoms: C_2  and  O_4
REMARK    2  A    between atoms: O_4  and  C_5
REMARK    3  A    between atoms: C_5  and  C_7
REMARK    4  A    between atoms: C_12  and  C_13
REMARK    5  A    between atoms: N_23  and  C_24
REMARK    6  A    between atoms: C_25  and  O_42
REMARK    7  A    between atoms: C_27  and  N_35
REMARK    8  A    between atoms: C_28  and  N_30
REMARK    9  A    between atoms: C_31  and  C_33
REMARK   10  A    between atoms: N_35  and  C_37
REMARK   11  A    between atoms: C_37  and  C_38
REMARK   12  A    between atoms: C_38  and  N_39
REMARK                            x       y       z     vdW  Elec       q    Type
REMARK                         _______ _______ _______ _____ _____    ______ ____
ROOT
ATOM      1  C   UNL     1      46.347  81.675  40.397  0.00  0.00    +0.113 A 
ATOM      2  C   UNL     1      45.800  82.430  39.367  0.00  0.00    +0.110 A 
ATOM      3  N   UNL     1      44.846  81.905  38.584  0.00  0.00    -0.210 NA
ATOM      4  C   UNL     1      44.376  80.685  38.729  0.00  0.00    +0.241 A 
ATOM      5  N   UNL     1      44.904  79.944  39.728  0.00  0.00    -0.212 NA
ATOM      6  C   UNL     1      45.877  80.407  40.565  0.00  0.00    +0.093 A 
ATOM      7  N   UNL     1      43.374  80.085  37.938  0.00  0.00    -0.175 NA
ENDROOT
BRANCH   6   8
ATOM      8  C   UNL     1      46.386  79.519  41.624  0.00  0.00    +0.037 A 
ATOM      9  C   UNL     1      47.675  79.343  42.068  0.00  0.00    +0.077 A 
ATOM     10  N   UNL     1      47.709  78.401  43.026  0.00  0.00    -0.324 N 
ATOM     11  C   UNL     1      46.448  77.947  43.224  0.00  0.00    +0.060 A 
ATOM     12  C   UNL     1      45.951  76.988  44.090  0.00  0.00    +0.017 A 
ATOM     13  C   UNL     1      44.603  76.722  44.082  0.00  0.00    +0.001 A 
ATOM     14  C   UNL     1      43.791  77.418  43.212  0.00  0.00    +0.000 A 
ATOM     15  C   UNL     1      44.254  78.376  42.340  0.00  0.00    +0.002 A 
ATOM     16  C   UNL     1      45.615  78.627  42.366  0.00  0.00    +0.019 A 
ATOM     17  C   UNL     1      48.858  77.906  43.764  0.00  0.00    +0.130 C 
ENDBRANCH   6   8
BRANCH   7  18
ATOM     18  C   UNL     1      42.739  78.847  38.179  0.00  0.00    +0.109 A 
ATOM     19  C   UNL     1      41.535  78.554  37.528  0.00  0.00    +0.155 A 
ATOM     20  C   UNL     1      40.898  77.363  37.741  0.00  0.00    +0.054 A 
ATOM     21  C   UNL     1      41.384  76.375  38.599  0.00  0.00    +0.067 A 
ATOM     22  C   UNL     1      42.553  76.653  39.235  0.00  0.00    +0.088 A 
ATOM     23  C   UNL     1      43.220  77.876  39.025  0.00  0.00    +0.038 A 
BRANCH  22  24
ATOM     24  N   UNL     1      43.124  75.722  40.118  0.00  0.00    -0.174 NA
ATOM     25  C   UNL     1      44.540  75.633  40.207  0.00  0.00    +0.269 C 
ATOM     26  O   UNL     1      45.277  76.511  39.673  0.00  0.00    -0.268 OA
BRANCH  25  27
ATOM     27  C   UNL     1      45.189  74.541  40.909  0.00  0.00    +0.060 C 
ATOM     28  C   UNL     1      46.282  74.746  41.597  0.00  0.00    +0.005 C 
ENDBRANCH  25  27
ENDBRANCH  22  24
BRANCH  21  29
ATOM     29  N   UNL     1      40.650  75.156  38.759  0.00  0.00    -0.303 N 
ATOM     30  C   UNL     1      41.205  73.913  38.301  0.00  0.00    +0.112 C 
BRANCH  29  31
ATOM     31  C   UNL     1      39.362  75.207  39.371  0.00  0.00    +0.108 C 
BRANCH  31  32
ATOM     32  C   UNL     1      39.198  74.805  40.777  0.00  0.00    +0.094 C 
BRANCH  32  33
ATOM     33  N   UNL     1      37.964  74.805  41.422  0.00  0.00    -0.269 NA
ATOM     34  C   UNL     1      37.855  74.493  42.791  0.00  0.00    +0.090 C 
ATOM     35  C   UNL     1      36.810  74.539  40.618  0.00  0.00    +0.090 C 
ENDBRANCH  32  33
ENDBRANCH  31  32
ENDBRANCH  29  31
ENDBRANCH  21  29
BRANCH  19  36
ATOM     36  O   UNL     1      41.021  79.510  36.669  0.00  0.00    -0.470 OA
ATOM     37  C   UNL     1      39.820  79.265  35.985  0.00  0.00    +0.253 C 
ENDBRANCH  19  36
ENDBRANCH   7  18
BRANCH   1  38
ATOM     38  C   UNL     1      47.344  82.288  41.253  0.00  0.00    +0.344 C 
ATOM     39  O   UNL     1      47.351  82.073  42.502  0.00  0.00    -0.245 OA
BRANCH  38  40
ATOM     40  O   UNL     1      48.303  83.109  40.748  0.00  0.00    -0.449 OA
BRANCH  40  42
ATOM     41  C   UNL     1      50.098  84.616  41.062  0.00  0.00    +0.047 C 
ATOM     42  C   UNL     1      48.580  84.417  41.165  0.00  0.00    +0.169 C 
ATOM     43  C   UNL     1      48.182  84.716  42.572  0.00  0.00    +0.047 C 
ENDBRANCH  40  42
ENDBRANCH  38  40
ENDBRANCH   1  38
TORSDOF 12
