REMARK  Name = Moexipril
REMARK  12 active torsions:
REMARK  status: ('A' for Active; 'I' for Inactive)
REMARK    1  A    between atoms: C_2  and  O_3
REMARK    2  A    between atoms: O_3  and  C_4
REMARK    3  A    between atoms: C_4  and  C_6
REMARK    4  A    between atoms: C_6  and  C_7
REMARK    5  A    between atoms: C_6  and  N_15
REMARK    6  A    between atoms: C_7  and  C_8
REMARK    7  A    between atoms: C_8  and  C_9
REMARK    8  A    between atoms: N_15  and  CA_16
REMARK    9  A    between atoms: CA_16  and  C_18
REMARK   10  A    between atoms: C_24  and  O_35
REMARK   11  A    between atoms: C_25  and  O_33
REMARK   12  A    between atoms: C_29  and  C_30
REMARK                            x       y       z     vdW  Elec       q    Type
REMARK                         _______ _______ _______ _____ _____    ______ ____
ROOT
ATOM      1  C   ALA A   1      45.733  79.924  40.377  0.00  0.00    +0.242 C 
ATOM      2  O   ALA A   1      44.727  80.591  39.896  0.00  0.00    -0.273 OA
ATOM      3  N   UNK A   2      46.951  80.588  40.350  0.00  0.00    -0.266 N 
ATOM      4  C   UNK A   2      48.008  80.056  41.275  0.00  0.00    +0.120 C 
ATOM      5  C   UNK A   2      48.502  81.227  42.088  0.00  0.00    -0.003 A 
ATOM      6  C   UNK A   2      49.328  80.963  43.166  0.00  0.00    +0.037 A 
ATOM      7  C   UNK A   2      49.829  81.963  43.972  0.00  0.00    +0.172 A 
ATOM      8  C   UNK A   2      49.471  83.257  43.660  0.00  0.00    +0.172 A 
ATOM      9  C   UNK A   2      48.647  83.519  42.583  0.00  0.00    +0.036 A 
ATOM     10  C   UNK A   2      48.138  82.507  41.765  0.00  0.00    -0.019 A 
ATOM     11  C   UNK A   2      47.258  82.898  40.625  0.00  0.00    +0.058 C 
ATOM     12  C   UNK A   2      47.371  81.723  39.635  0.00  0.00    +0.184 C 
ENDROOT
BRANCH  12  13
ATOM     13  C   UNK A   2      46.942  82.008  38.294  0.00  0.00    +0.383 C 
ATOM     14  O   UNK A   2      46.038  81.415  37.719  0.00  0.00    -0.244 OA
ATOM     15  O   UNK A   2      47.575  83.028  37.558  0.00  0.00    -0.244 OA
ENDBRANCH  12  13
BRANCH   1  16
ATOM     16  CA  ALA A   1      45.370  78.585  40.851  0.00  0.00    +0.149 C 
ATOM     17  CB  ALA A   1      46.554  77.678  40.466  0.00  0.00    +0.029 C 
BRANCH  16  18
ATOM     18  N   ALA A   1      44.253  78.041  40.092  0.00  0.00    -0.201 NA
BRANCH  18  19
ATOM     19  C   UNK A   0      43.295  77.309  40.839  0.00  0.00    +0.172 C 
BRANCH  19  20
ATOM     20  C   UNK A   0      43.813  76.267  41.728  0.00  0.00    +0.333 C 
ATOM     21  O   UNK A   0      44.756  75.535  41.384  0.00  0.00    -0.249 OA
BRANCH  20  22
ATOM     22  O   UNK A   0      43.249  76.090  42.974  0.00  0.00    -0.448 OA
BRANCH  22  24
ATOM     23  C   UNK A   0      44.948  75.422  44.572  0.00  0.00    +0.051 C 
ATOM     24  C   UNK A   0      43.659  75.106  43.875  0.00  0.00    +0.209 C 
ENDBRANCH  22  24
ENDBRANCH  20  22
ENDBRANCH  19  20
BRANCH  19  25
ATOM     25  C   UNK A   0      42.290  76.606  39.906  0.00  0.00    +0.033 C 
BRANCH  25  26
ATOM     26  C   UNK A   0      41.493  77.634  39.134  0.00  0.00    +0.028 C 
BRANCH  26  27
ATOM     27  C   UNK A   0      40.414  77.010  38.339  0.00  0.00    -0.022 A 
ATOM     28  C   UNK A   0      39.253  76.588  38.908  0.00  0.00    -0.004 A 
ATOM     29  C   UNK A   0      38.283  76.013  38.109  0.00  0.00    -0.000 A 
ATOM     30  C   UNK A   0      38.459  75.856  36.748  0.00  0.00    -0.000 A 
ATOM     31  C   UNK A   0      39.636  76.283  36.168  0.00  0.00    -0.000 A 
ATOM     32  C   UNK A   0      40.602  76.860  36.988  0.00  0.00    -0.004 A 
ENDBRANCH  26  27
ENDBRANCH  25  26
ENDBRANCH  19  25
ENDBRANCH  18  19
ENDBRANCH  16  18
ENDBRANCH   1  16
BRANCH   8  33
ATOM     33  O   UNK A   2      49.945  84.312  44.436  0.00  0.00    -0.468 OA
ATOM     34  C   UNK A   2      50.689  85.358  43.868  0.00  0.00    +0.253 C 
ENDBRANCH   8  33
BRANCH   7  35
ATOM     35  O   UNK A   2      50.657  81.685  45.051  0.00  0.00    -0.468 OA
ATOM     36  C   UNK A   2      50.351  80.765  46.053  0.00  0.00    +0.253 C 
ENDBRANCH   7  35
TORSDOF 12
