REMARK  Name = Molindone
REMARK  3 active torsions:
REMARK  status: ('A' for Active; 'I' for Inactive)
REMARK    1  A    between atoms: C_2  and  C_3
REMARK    2  A    between atoms: C_10  and  C_13
REMARK    3  A    between atoms: C_13  and  N_14
REMARK                            x       y       z     vdW  Elec       q    Type
REMARK                         _______ _______ _______ _____ _____    ______ ____
ROOT
ATOM      1  C   UNL     1      46.505  80.933  40.119  0.00  0.00    -0.005 A 
ATOM      2  C   UNL     1      46.530  82.079  39.361  0.00  0.00    +0.055 A 
ATOM      3  N   UNL     1      45.398  82.104  38.638  0.00  0.00    -0.254 NA
ATOM      4  C   UNL     1      44.643  81.021  38.902  0.00  0.00    +0.061 A 
ATOM      5  C   UNL     1      45.333  80.284  39.829  0.00  0.00    +0.045 A 
ATOM      6  C   UNL     1      44.740  79.025  40.306  0.00  0.00    +0.175 C 
ATOM      7  O   UNL     1      45.008  78.631  41.467  0.00  0.00    -0.291 OA
ATOM      8  C   UNL     1      43.840  78.221  39.442  0.00  0.00    +0.078 C 
ATOM      9  C   UNL     1      43.325  79.021  38.285  0.00  0.00    +0.015 C 
ATOM     10  C   UNL     1      43.347  80.501  38.455  0.00  0.00    +0.046 C 
ATOM     11  C   UNL     1      47.563  83.138  39.289  0.00  0.00    +0.052 C 
ENDROOT
BRANCH   1  13
ATOM     12  C   UNL     1      47.591  81.297  42.331  0.00  0.00    +0.005 C 
ATOM     13  C   UNL     1      47.530  80.480  41.061  0.00  0.00    +0.028 C 
ENDBRANCH   1  13
BRANCH   8  14
ATOM     14  C   UNL     1      42.707  77.707  40.291  0.00  0.00    +0.080 C 
BRANCH  14  15
ATOM     15  N   UNL     1      41.611  77.195  39.513  0.00  0.00    -0.268 NA
ATOM     16  C   UNL     1      41.820  77.291  38.090  0.00  0.00    +0.105 C 
ATOM     17  C   UNL     1      40.617  76.667  37.413  0.00  0.00    +0.159 C 
ATOM     18  O   UNL     1      40.560  75.295  37.670  0.00  0.00    -0.351 OA
ATOM     19  C   UNL     1      41.413  74.911  38.677  0.00  0.00    +0.159 C 
ATOM     20  C   UNL     1      41.314  75.822  39.859  0.00  0.00    +0.105 C 
ENDBRANCH  14  15
ENDBRANCH   8  14
TORSDOF 3
