REMARK  Name = Molsidomine
REMARK  4 active torsions:
REMARK  status: ('A' for Active; 'I' for Inactive)
REMARK    1  A    between atoms: C_2  and  O_3
REMARK    2  A    between atoms: O_3  and  C_4
REMARK    3  A    between atoms: N_5  and  C_6
REMARK    4  A    between atoms: N_8  and  N_11
REMARK                            x       y       z     vdW  Elec       q    Type
REMARK                         _______ _______ _______ _____ _____    ______ ____
ROOT
ATOM      1  C   UNL     1      44.422  79.324  39.541  0.00  0.00    +0.286 A 
ATOM      2  C   UNL     1      43.269  79.195  38.737  0.00  0.00    +0.181 A 
ATOM      3  N   UNL     1      42.634  78.064  39.051  0.00  0.00    -0.140 N 
ATOM      4  N   UNL     1      43.355  77.515  40.005  0.00  0.00    +0.033 NA
ATOM      5  O   UNL     1      44.382  78.207  40.309  0.00  0.00    -0.315 OA
ENDROOT
BRANCH   3   6
ATOM      6  N   UNL     1      41.457  77.608  38.467  0.00  0.00    -0.225 N 
ATOM      7  C   UNL     1      40.462  76.836  39.218  0.00  0.00    +0.143 C 
ATOM      8  C   UNL     1      40.288  75.579  38.343  0.00  0.00    +0.165 C 
ATOM      9  O   UNL     1      39.686  75.886  37.134  0.00  0.00    -0.350 OA
ATOM     10  C   UNL     1      39.762  77.225  36.812  0.00  0.00    +0.165 C 
ATOM     11  C   UNL     1      41.109  77.849  37.077  0.00  0.00    +0.143 C 
ENDBRANCH   3   6
BRANCH   1  13
ATOM     12  C   UNL     1      45.855  81.345  39.509  0.00  0.00    +0.439 C 
ATOM     13  N   UNL     1      45.350  80.294  39.564  0.00  0.00    -0.135 NA
ATOM     14  O   UNL     1      45.409  82.341  38.609  0.00  0.00    -0.221 OA
BRANCH  12  15
ATOM     15  O   UNL     1      46.955  81.669  40.358  0.00  0.00    -0.431 OA
BRANCH  15  17
ATOM     16  C   UNL     1      47.789  83.787  41.215  0.00  0.00    +0.051 C 
ATOM     17  C   UNL     1      47.610  82.899  40.008  0.00  0.00    +0.211 C 
ENDBRANCH  15  17
ENDBRANCH  12  15
ENDBRANCH   1  13
TORSDOF 4
