REMARK  Name = Momelotinib
REMARK  6 active torsions:
REMARK  status: ('A' for Active; 'I' for Inactive)
REMARK    1  A    between atoms: N_6  and  C_7
REMARK    2  A    between atoms: C_10  and  N_13
REMARK    3  A    between atoms: C_18  and  C_20
REMARK    4  A    between atoms: C_23  and  C_26
REMARK    5  A    between atoms: N_28  and  C_29
REMARK    6  A    between atoms: C_29  and  C_30
REMARK                            x       y       z     vdW  Elec       q    Type
REMARK                         _______ _______ _______ _____ _____    ______ ____
ROOT
ATOM      1  N   UNL     1      45.038  79.772  37.855  0.00  0.00    -0.178 NA
ATOM      2  C   UNL     1      45.584  80.865  38.459  0.00  0.00    +0.241 A 
ATOM      3  N   UNL     1      45.354  82.170  38.192  0.00  0.00    -0.211 NA
ATOM      4  C   UNL     1      45.781  83.222  38.645  0.00  0.00    +0.103 A 
ATOM      5  C   UNL     1      46.778  83.141  39.713  0.00  0.00    +0.040 A 
ATOM      6  C   UNL     1      47.096  81.847  40.066  0.00  0.00    +0.086 A 
ATOM      7  N   UNL     1      46.545  80.814  39.485  0.00  0.00    -0.212 NA
ENDROOT
BRANCH   1  11
ATOM      8  C   UNL     1      42.703  76.787  39.702  0.00  0.00    +0.048 A 
ATOM      9  C   UNL     1      42.440  77.297  38.472  0.00  0.00    +0.016 A 
ATOM     10  C   UNL     1      43.170  78.243  37.839  0.00  0.00    +0.018 A 
ATOM     11  C   UNL     1      44.303  78.750  38.505  0.00  0.00    +0.074 A 
ATOM     12  C   UNL     1      44.627  78.270  39.755  0.00  0.00    +0.018 A 
ATOM     13  C   UNL     1      43.810  77.290  40.336  0.00  0.00    +0.016 A 
BRANCH   8  19
ATOM     14  C   UNL     1      41.728  75.615  41.698  0.00  0.00    +0.123 C 
ATOM     15  C   UNL     1      41.398  74.228  42.135  0.00  0.00    +0.164 C 
ATOM     16  O   UNL     1      40.633  73.465  41.320  0.00  0.00    -0.350 OA
ATOM     17  C   UNL     1      40.457  73.766  40.034  0.00  0.00    +0.164 C 
ATOM     18  C   UNL     1      41.235  74.841  39.402  0.00  0.00    +0.123 C 
ATOM     19  N   UNL     1      41.901  75.758  40.299  0.00  0.00    -0.303 N 
ENDBRANCH   8  19
ENDBRANCH   1  11
BRANCH   6  20
ATOM     20  C   UNL     1      48.057  81.649  41.180  0.00  0.00    +0.018 A 
ATOM     21  C   UNL     1      48.002  80.517  41.957  0.00  0.00    +0.002 A 
ATOM     22  C   UNL     1      48.941  80.312  42.887  0.00  0.00    +0.005 A 
ATOM     23  C   UNL     1      49.948  81.210  43.101  0.00  0.00    +0.055 A 
ATOM     24  C   UNL     1      50.034  82.361  42.353  0.00  0.00    +0.005 A 
ATOM     25  C   UNL     1      49.066  82.585  41.370  0.00  0.00    +0.002 A 
BRANCH  23  26
ATOM     26  C   UNL     1      50.990  80.879  44.126  0.00  0.00    +0.266 C 
ATOM     27  O   UNL     1      52.179  81.120  43.988  0.00  0.00    -0.268 OA
ATOM     28  N   UNL     1      50.502  80.249  45.330  0.00  0.00    -0.185 NA
BRANCH  28  29
ATOM     29  C   UNL     1      51.313  79.701  46.347  0.00  0.00    +0.220 C 
BRANCH  29  30
ATOM     30  C   UNL     1      51.788  80.844  47.226  0.00  0.00    +0.097 C 
ATOM     31  N   UNL     1      52.160  81.696  47.900  0.00  0.00    -0.194 NA
ENDBRANCH  29  30
ENDBRANCH  28  29
ENDBRANCH  23  26
ENDBRANCH   6  20
TORSDOF 6
