REMARK  Name = Mometasone
REMARK  2 active torsions:
REMARK  status: ('A' for Active; 'I' for Inactive)
REMARK    1  A    between atoms: C_19  and  C_20
REMARK    2  A    between atoms: C_20  and  C_22
REMARK                            x       y       z     vdW  Elec       q    Type
REMARK                         _______ _______ _______ _____ _____    ______ ____
ROOT
ATOM      1  C   UNL     1      50.180  81.019  42.990  0.00  0.00    +0.003 C 
ATOM      2  C   UNL     1      48.784  81.542  43.005  0.00  0.00    +0.035 C 
ATOM      3  C   UNL     1      47.738  80.490  42.761  0.00  0.00    +0.003 C 
ATOM      4  C   UNL     1      47.834  80.350  41.237  0.00  0.00    +0.004 C 
ATOM      5  C   UNL     1      46.767  79.528  40.643  0.00  0.00    +0.017 C 
ATOM      6  C   UNL     1      47.359  78.354  39.864  0.00  0.00    +0.006 C 
ATOM      7  C   UNL     1      46.320  77.279  39.630  0.00  0.00    +0.022 C 
ATOM      8  C   UNL     1      44.946  77.906  39.697  0.00  0.00    -0.037 C 
ATOM      9  C   UNL     1      44.002  77.156  40.173  0.00  0.00    +0.034 C 
ATOM     10  C   UNL     1      42.608  77.613  40.311  0.00  0.00    +0.195 C 
ATOM     11  O   UNL     1      41.706  76.901  40.763  0.00  0.00    -0.287 OA
ATOM     12  C   UNL     1      42.400  78.980  39.865  0.00  0.00    +0.038 C 
ATOM     13  C   UNL     1      43.373  79.722  39.384  0.00  0.00    -0.018 C 
ATOM     14  C   UNL     1      44.750  79.276  39.238  0.00  0.00    +0.049 C 
ATOM     15  C   UNL     1      45.674  80.252  39.919  0.00  0.00    +0.102 C 
ATOM     16  C   UNL     1      46.307  81.258  39.046  0.00  0.00    +0.166 C 
ATOM     17  C   UNL     1      46.887  82.325  39.998  0.00  0.00    +0.037 C 
ATOM     18  C   UNL     1      48.043  81.731  40.711  0.00  0.00    +0.035 C 
ATOM     19  C   UNL     1      48.580  82.521  41.865  0.00  0.00    +0.178 C 
ATOM     20  O   UNL     1      49.855  83.048  41.587  0.00  0.00    -0.218 OA
ATOM     21  C   UNL     1      49.172  81.694  39.660  0.00  0.00    +0.003 C 
ATOM     22  O   UNL     1      45.462  81.956  38.210  0.00  0.00    -0.222 OA
ATOM     23 CL   UNL     1      44.698  81.100  41.150  0.00  0.00    -0.113 Cl
ATOM     24  C   UNL     1      45.007  79.357  37.705  0.00  0.00    +0.010 C 
ENDROOT
BRANCH  19  25
ATOM     25  C   UNL     1      47.712  83.589  42.376  0.00  0.00    +0.194 C 
ATOM     26  O   UNL     1      46.526  83.423  42.473  0.00  0.00    -0.292 OA
BRANCH  25  27
ATOM     27  C   UNL     1      48.284  84.888  42.779  0.00  0.00    +0.161 C 
ATOM     28 CL   UNL     1      47.151  86.234  42.534  0.00  0.00    -0.105 Cl
ENDBRANCH  25  27
ENDBRANCH  19  25
TORSDOF 2
