REMARK  Name = Monoctanoin
REMARK  10 active torsions:
REMARK  status: ('A' for Active; 'I' for Inactive)
REMARK    1  A    between atoms: C_2  and  C_3
REMARK    2  A    between atoms: C_3  and  C_4
REMARK    3  A    between atoms: C_4  and  C_5
REMARK    4  A    between atoms: C_5  and  C_6
REMARK    5  A    between atoms: C_6  and  C_7
REMARK    6  A    between atoms: C_7  and  C_8
REMARK    7  A    between atoms: C_8  and  O_10
REMARK    8  A    between atoms: O_10  and  C_11
REMARK    9  A    between atoms: C_11  and  C_12
REMARK   10  A    between atoms: C_12  and  C_13
REMARK                            x       y       z     vdW  Elec       q    Type
REMARK                         _______ _______ _______ _____ _____    ______ ____
ROOT
ATOM      1  C   UNL     1      45.383  81.432  39.315  0.00  0.00    +0.317 C 
ATOM      2  O   UNL     1      45.523  81.811  38.130  0.00  0.00    -0.250 OA
ENDROOT
BRANCH   1   3
ATOM      3  C   UNL     1      46.135  82.162  40.401  0.00  0.00    +0.110 C 
BRANCH   3   4
ATOM      4  C   UNL     1      47.589  81.893  40.252  0.00  0.00    +0.012 C 
BRANCH   4   5
ATOM      5  C   UNL     1      48.476  82.640  41.170  0.00  0.00    +0.001 C 
BRANCH   5   6
ATOM      6  C   UNL     1      49.385  81.796  42.008  0.00  0.00    +0.000 C 
BRANCH   6   7
ATOM      7  C   UNL     1      50.788  82.367  41.862  0.00  0.00    +0.000 C 
BRANCH   7   9
ATOM      8  C   UNL     1      50.097  83.827  43.771  0.00  0.00    +0.000 C 
ATOM      9  C   UNL     1      50.745  83.780  42.398  0.00  0.00    +0.000 C 
ENDBRANCH   7   9
ENDBRANCH   6   7
ENDBRANCH   5   6
ENDBRANCH   4   5
ENDBRANCH   3   4
ENDBRANCH   1   3
BRANCH   1  10
ATOM     10  O   UNL     1      44.562  80.385  39.565  0.00  0.00    -0.446 OA
BRANCH  10  11
ATOM     11  C   UNL     1      43.529  79.844  38.807  0.00  0.00    +0.244 C 
BRANCH  11  12
ATOM     12  C   UNL     1      42.910  78.672  39.476  0.00  0.00    +0.228 C 
ATOM     13  O   UNL     1      43.746  77.606  39.598  0.00  0.00    -0.216 OA
BRANCH  12  14
ATOM     14  C   UNL     1      41.620  78.229  38.806  0.00  0.00    +0.219 C 
ATOM     15  O   UNL     1      41.794  77.988  37.453  0.00  0.00    -0.217 OA
ENDBRANCH  12  14
ENDBRANCH  11  12
ENDBRANCH  10  11
ENDBRANCH   1  10
TORSDOF 10
