REMARK  Name = Monocrotaline
REMARK  0 active torsions:
REMARK  status: ('A' for Active; 'I' for Inactive)
REMARK                            x       y       z     vdW  Elec       q    Type
REMARK                         _______ _______ _______ _____ _____    ______ ____
ROOT
ATOM      1  C   UNL     1      48.687  80.071  42.413  0.00  0.00    +0.014 C 
ATOM      2  C   UNL     1      47.724  80.445  41.272  0.00  0.00    +0.130 C 
ATOM      3  C   UNL     1      46.395  80.584  41.920  0.00  0.00    +0.319 C 
ATOM      4  O   UNL     1      46.192  81.752  42.417  0.00  0.00    -0.250 OA
ATOM      5  O   UNL     1      45.458  79.649  42.019  0.00  0.00    -0.450 OA
ATOM      6  C   UNL     1      44.629  78.920  41.237  0.00  0.00    +0.189 C 
ATOM      7  C   UNL     1      44.496  77.535  41.889  0.00  0.00    +0.063 C 
ATOM      8  C   UNL     1      44.534  76.554  40.760  0.00  0.00    +0.076 C 
ATOM      9  N   UNL     1      44.392  77.302  39.537  0.00  0.00    -0.264 NA
ATOM     10  C   UNL     1      44.920  78.646  39.832  0.00  0.00    +0.120 C 
ATOM     11  C   UNL     1      44.146  79.498  38.853  0.00  0.00    +0.014 C 
ATOM     12  C   UNL     1      43.020  78.848  38.593  0.00  0.00    -0.012 C 
ATOM     13  C   UNL     1      42.972  77.558  39.359  0.00  0.00    +0.099 C 
ATOM     14  C   UNL     1      44.674  80.794  38.358  0.00  0.00    +0.232 C 
ATOM     15  O   UNL     1      45.099  81.555  39.423  0.00  0.00    -0.442 OA
ATOM     16  C   UNL     1      46.119  82.418  39.609  0.00  0.00    +0.347 C 
ATOM     17  O   UNL     1      45.838  83.611  39.976  0.00  0.00    -0.247 OA
ATOM     18  C   UNL     1      47.568  82.158  39.441  0.00  0.00    +0.240 C 
ATOM     19  C   UNL     1      48.231  81.762  40.739  0.00  0.00    +0.172 C 
ATOM     20  C   UNL     1      49.709  81.589  40.457  0.00  0.00    +0.037 C 
ATOM     21  O   UNL     1      48.029  82.751  41.670  0.00  0.00    -0.222 OA
ATOM     22  C   UNL     1      47.879  81.171  38.336  0.00  0.00    +0.047 C 
ATOM     23  O   UNL     1      48.166  83.351  39.032  0.00  0.00    -0.212 OA
ENDROOT
TORSDOF 0
