REMARK  Name = Montelukast
REMARK  12 active torsions:
REMARK  status: ('A' for Active; 'I' for Inactive)
REMARK    1  A    between atoms: C_2  and  C_4
REMARK    2  A    between atoms: C_9  and  C_10
REMARK    3  A    between atoms: C_10  and  C_11
REMARK    4  A    between atoms: C_11  and  C_12
REMARK    5  A    between atoms: C_12  and  C_13
REMARK    6  A    between atoms: C_12  and  S_32
REMARK    7  A    between atoms: C_17  and  C_19
REMARK    8  A    between atoms: C_20  and  C_21
REMARK    9  A    between atoms: S_32  and  C_33
REMARK   10  A    between atoms: C_33  and  C_34
REMARK   11  A    between atoms: C_34  and  C_37
REMARK   12  A    between atoms: C_37  and  C_38
REMARK                            x       y       z     vdW  Elec       q    Type
REMARK                         _______ _______ _______ _____ _____    ______ ____
ROOT
ATOM      1  C   UNL     1      47.947  80.480  41.491  0.00  0.00    +0.070 C 
ENDROOT
BRANCH   1   2
ATOM      2  C   UNL     1      46.909  80.759  40.507  0.00  0.00    -0.012 A 
ATOM      3  C   UNL     1      47.096  81.751  39.584  0.00  0.00    -0.003 A 
ATOM      4  C   UNL     1      46.157  82.040  38.622  0.00  0.00    -0.000 A 
ATOM      5  C   UNL     1      44.968  81.298  38.578  0.00  0.00    -0.000 A 
ATOM      6  C   UNL     1      44.741  80.307  39.467  0.00  0.00    -0.000 A 
ATOM      7  C   UNL     1      45.751  80.051  40.447  0.00  0.00    -0.003 A 
BRANCH   6   8
ATOM      8  C   UNL     1      43.592  79.446  39.410  0.00  0.00    +0.002 C 
ATOM      9  C   UNL     1      42.717  79.108  38.547  0.00  0.00    +0.019 C 
BRANCH   9  10
ATOM     10  C   UNL     1      41.734  78.072  38.424  0.00  0.00    +0.081 A 
ATOM     11  N   UNL     1      41.492  77.119  39.311  0.00  0.00    -0.245 NA
ATOM     12  C   UNL     1      40.572  76.183  39.158  0.00  0.00    +0.082 A 
ATOM     13  C   UNL     1      39.771  76.120  38.038  0.00  0.00    +0.018 A 
ATOM     14  C   UNL     1      38.802  75.145  37.868  0.00  0.00    +0.002 A 
ATOM     15  C   UNL     1      38.595  74.186  38.823  0.00  0.00    +0.011 A 
ATOM     16  C   UNL     1      39.392  74.238  39.952  0.00  0.00    +0.059 A 
ATOM     17  C   UNL     1      40.351  75.202  40.121  0.00  0.00    +0.030 A 
ATOM     18 CL   UNL     1      39.144  73.022  41.188  0.00  0.00    -0.082 Cl
ATOM     19  C   UNL     1      39.971  77.076  37.084  0.00  0.00    +0.003 A 
ATOM     20  C   UNL     1      40.933  78.031  37.275  0.00  0.00    +0.019 A 
ENDBRANCH   9  10
ENDBRANCH   6   8
ENDBRANCH   1   2
BRANCH   1  21
ATOM     21  C   UNL     1      48.438  79.075  41.617  0.00  0.00    +0.020 C 
BRANCH  21  22
ATOM     22  C   UNL     1      47.459  78.003  41.861  0.00  0.00    +0.027 C 
BRANCH  22  28
ATOM     23  C   UNL     1      46.945  75.663  42.478  0.00  0.00    +0.001 A 
ATOM     24  C   UNL     1      47.425  74.346  42.575  0.00  0.00    -0.002 A 
ATOM     25  C   UNL     1      48.688  73.938  42.233  0.00  0.00    -0.000 A 
ATOM     26  C   UNL     1      49.557  74.879  41.759  0.00  0.00    -0.000 A 
ATOM     27  C   UNL     1      49.117  76.162  41.656  0.00  0.00    -0.005 A 
ATOM     28  C   UNL     1      47.824  76.609  42.002  0.00  0.00    -0.024 A 
BRANCH  23  30
ATOM     29  C   UNL     1      44.571  75.905  41.715  0.00  0.00    +0.038 C 
ATOM     30  C   UNL     1      45.565  75.940  42.833  0.00  0.00    +0.145 C 
ATOM     31  C   UNL     1      45.315  77.103  43.773  0.00  0.00    +0.038 C 
ATOM     32  O   UNL     1      45.161  74.836  43.666  0.00  0.00    -0.221 OA
ENDBRANCH  23  30
ENDBRANCH  22  28
ENDBRANCH  21  22
ENDBRANCH   1  21
BRANCH   1  33
ATOM     33  S   UNL     1      47.971  81.481  42.915  0.00  0.00    -0.137 S 
BRANCH  33  34
ATOM     34  C   UNL     1      49.203  82.635  43.312  0.00  0.00    +0.058 C 
BRANCH  34  35
ATOM     35  C   UNL     1      49.351  83.891  42.514  0.00  0.00    +0.021 C 
ATOM     36  C   UNL     1      48.386  84.955  42.319  0.00  0.00    +0.001 C 
ATOM     37  C   UNL     1      49.498  85.165  43.306  0.00  0.00    +0.001 C 
BRANCH  35  38
ATOM     38  C   UNL     1      50.507  83.779  41.474  0.00  0.00    +0.115 C 
BRANCH  38  39
ATOM     39  C   UNL     1      51.749  83.574  42.233  0.00  0.00    +0.365 C 
ATOM     40  O   UNL     1      52.732  82.966  41.776  0.00  0.00    -0.246 OA
ATOM     41  O   UNL     1      51.873  84.072  43.539  0.00  0.00    -0.246 OA
ENDBRANCH  38  39
ENDBRANCH  35  38
ENDBRANCH  34  35
ENDBRANCH  33  34
ENDBRANCH   1  33
TORSDOF 12
