REMARK  Name = Morantel_tartrate
REMARK  5 active torsions:
REMARK  status: ('A' for Active; 'I' for Inactive)
REMARK    1  A    between atoms: C_3  and  C_7
REMARK    2  A    between atoms: C_8  and  C_9
REMARK    3  A    between atoms: C_16  and  C_17
REMARK    4  A    between atoms: C_16  and  C_22
REMARK    5  A    between atoms: C_17  and  C_18
REMARK                            x       y       z     vdW  Elec       q    Type
REMARK                         _______ _______ _______ _____ _____    ______ ____
ROOT
ATOM      1  C   UNL     1      47.214  82.403  41.375  0.00  0.00    +0.009 C 
ATOM      2  C   UNL     1      47.103  81.182  41.056  0.00  0.00    +0.034 C 
ENDROOT
BRANCH   2   3
ATOM      3  C   UNL     1      46.090  80.659  40.124  0.00  0.00    +0.127 C 
ATOM      4  N   UNL     1      45.438  81.483  39.320  0.00  0.00    -0.256 NA
ATOM      5  C   UNL     1      44.465  80.799  38.457  0.00  0.00    +0.129 C 
ATOM      6  C   UNL     1      43.608  79.859  39.276  0.00  0.00    +0.048 C 
ATOM      7  C   UNL     1      44.402  78.868  40.057  0.00  0.00    +0.094 C 
ATOM      8  N   UNL     1      45.807  79.290  40.026  0.00  0.00    -0.292 N 
ATOM      9  C   UNL     1      46.875  78.328  39.879  0.00  0.00    +0.114 C 
ENDBRANCH   2   3
BRANCH   1  12
ATOM     10  C   UNL     1      47.468  84.970  43.282  0.00  0.00    +0.032 C 
ATOM     11  C   UNL     1      48.615  84.121  42.739  0.00  0.00    -0.015 A 
ATOM     12  C   UNL     1      48.402  83.051  41.930  0.00  0.00    +0.026 A 
ATOM     13  S   UNL     1      50.046  82.507  41.641  0.00  0.00    -0.087 S 
ATOM     14  C   UNL     1      50.885  83.652  42.549  0.00  0.00    +0.035 A 
ATOM     15  C   UNL     1      49.892  84.430  43.057  0.00  0.00    +0.003 A 
ENDBRANCH   1  12
TORSDOF 2
REMARK  Name = Morantel_tartrate
REMARK  5 active torsions:
REMARK  status: ('A' for Active; 'I' for Inactive)
REMARK    1  A    between atoms: C_3  and  C_7
REMARK    2  A    between atoms: C_8  and  C_9
REMARK    3  A    between atoms: C_16  and  C_17
REMARK    4  A    between atoms: C_16  and  C_22
REMARK    5  A    between atoms: C_17  and  C_18
REMARK                            x       y       z     vdW  Elec       q    Type
REMARK                         _______ _______ _______ _____ _____    ______ ____
ROOT
ATOM      1  C   UNL     1      46.837  81.326  41.448  0.00  0.00    +0.295 C 
ATOM      2  O   UNL     1      47.129  79.970  41.448  0.00  0.00    -0.207 OA
ENDROOT
BRANCH   1   3
ATOM      3  C   UNL     1      47.955  82.050  42.059  0.00  0.00    +0.398 C 
ATOM      4  O   UNL     1      48.363  81.742  43.201  0.00  0.00    -0.243 OA
ATOM      5  O   UNL     1      48.599  83.101  41.398  0.00  0.00    -0.243 OA
ENDBRANCH   1   3
BRANCH   1   6
ATOM      6  C   UNL     1      46.661  81.858  40.035  0.00  0.00    +0.295 C 
ATOM      7  O   UNL     1      47.780  81.534  39.293  0.00  0.00    -0.207 OA
BRANCH   6   8
ATOM      8  C   UNL     1      45.414  81.293  39.406  0.00  0.00    +0.398 C 
ATOM      9  O   UNL     1      44.367  81.078  40.069  0.00  0.00    -0.243 OA
ATOM     10  O   UNL     1      45.370  80.984  38.056  0.00  0.00    -0.243 OA
ENDBRANCH   6   8
ENDBRANCH   1   6
TORSDOF 3
