REMARK  Name = Moricizine
REMARK  6 active torsions:
REMARK  status: ('A' for Active; 'I' for Inactive)
REMARK    1  A    between atoms: C_2  and  O_3
REMARK    2  A    between atoms: O_3  and  C_4
REMARK    3  A    between atoms: N_6  and  C_7
REMARK    4  A    between atoms: C_21  and  C_23
REMARK    5  A    between atoms: C_23  and  C_24
REMARK    6  A    between atoms: C_24  and  N_25
REMARK                            x       y       z     vdW  Elec       q    Type
REMARK                         _______ _______ _______ _____ _____    ______ ____
ROOT
ATOM      1  C   UNL     1      47.613  81.245  41.062  0.00  0.00    +0.078 A 
ATOM      2  C   UNL     1      46.742  80.140  41.142  0.00  0.00    +0.032 A 
ATOM      3  C   UNL     1      45.622  79.998  40.353  0.00  0.00    +0.065 A 
ATOM      4  C   UNL     1      45.382  81.023  39.452  0.00  0.00    +0.044 A 
ATOM      5  C   UNL     1      46.223  82.097  39.367  0.00  0.00    +0.009 A 
ATOM      6  C   UNL     1      47.339  82.230  40.157  0.00  0.00    +0.017 A 
ATOM      7  S   UNL     1      43.951  81.047  38.436  0.00  0.00    -0.084 S 
ATOM      8  C   UNL     1      43.201  79.412  38.612  0.00  0.00    +0.043 A 
ATOM      9  C   UNL     1      42.196  79.087  37.722  0.00  0.00    +0.008 A 
ATOM     10  C   UNL     1      41.615  77.841  37.787  0.00  0.00    +0.001 A 
ATOM     11  C   UNL     1      42.074  76.969  38.749  0.00  0.00    +0.001 A 
ATOM     12  C   UNL     1      43.075  77.317  39.618  0.00  0.00    +0.016 A 
ATOM     13  C   UNL     1      43.684  78.584  39.580  0.00  0.00    +0.064 A 
ATOM     14  N   UNL     1      44.811  78.811  40.437  0.00  0.00    -0.236 N 
ATOM     15  C   UNL     1      44.952  78.021  41.618  0.00  0.00    +0.235 C 
ATOM     16  O   UNL     1      44.639  78.572  42.728  0.00  0.00    -0.274 OA
ENDROOT
BRANCH   1  19
ATOM     17  C   UNL     1      49.715  82.315  41.896  0.00  0.00    +0.425 C 
ATOM     18  O   UNL     1      49.487  83.262  41.079  0.00  0.00    -0.224 OA
ATOM     19  N   UNL     1      48.743  81.284  41.927  0.00  0.00    -0.142 NA
BRANCH  17  20
ATOM     20  O   UNL     1      50.842  82.341  42.670  0.00  0.00    -0.433 OA
BRANCH  20  22
ATOM     21  C   UNL     1      51.012  84.532  43.687  0.00  0.00    +0.051 C 
ATOM     22  C   UNL     1      51.660  83.506  42.794  0.00  0.00    +0.210 C 
ENDBRANCH  20  22
ENDBRANCH  17  20
ENDBRANCH   1  19
BRANCH  15  23
ATOM     23  C   UNL     1      45.395  76.606  41.704  0.00  0.00    +0.103 C 
BRANCH  23  24
ATOM     24  C   UNL     1      44.837  75.986  42.945  0.00  0.00    +0.082 C 
BRANCH  24  25
ATOM     25  N   UNL     1      43.742  75.097  42.708  0.00  0.00    -0.268 NA
ATOM     26  C   UNL     1      44.115  74.075  41.776  0.00  0.00    +0.105 C 
ATOM     27  C   UNL     1      43.090  72.963  41.693  0.00  0.00    +0.159 C 
ATOM     28  O   UNL     1      42.832  72.386  42.922  0.00  0.00    -0.351 OA
ATOM     29  C   UNL     1      43.596  72.962  43.929  0.00  0.00    +0.159 C 
ATOM     30  C   UNL     1      43.319  74.459  43.937  0.00  0.00    +0.105 C 
ENDBRANCH  24  25
ENDBRANCH  23  24
ENDBRANCH  15  23
TORSDOF 6
