REMARK  Name = Morniflumate
REMARK  7 active torsions:
REMARK  status: ('A' for Active; 'I' for Inactive)
REMARK    1  A    between atoms: N_6  and  C_7
REMARK    2  A    between atoms: C_7  and  C_8
REMARK    3  A    between atoms: C_8  and  O_9
REMARK    4  A    between atoms: O_9  and  C_10
REMARK    5  A    between atoms: C_10  and  C_12
REMARK    6  A    between atoms: N_18  and  C_19
REMARK    7  A    between atoms: C_23  and  C_25
REMARK                            x       y       z     vdW  Elec       q    Type
REMARK                         _______ _______ _______ _____ _____    ______ ____
ROOT
ATOM      1  C   UNL     1      45.865  80.828  40.090  0.00  0.00    +0.109 A 
ATOM      2  C   UNL     1      46.707  81.780  40.619  0.00  0.00    +0.158 A 
ATOM      3  N   UNL     1      47.021  82.802  39.817  0.00  0.00    -0.227 NA
ATOM      4  C   UNL     1      46.603  82.993  38.567  0.00  0.00    +0.100 A 
ATOM      5  C   UNL     1      45.760  82.042  38.035  0.00  0.00    +0.021 A 
ATOM      6  C   UNL     1      45.388  80.969  38.775  0.00  0.00    +0.011 A 
ATOM      7  N   UNL     1      47.178  81.632  41.941  0.00  0.00    -0.194 NA
ENDROOT
BRANCH   7   8
ATOM      8  C   UNL     1      48.129  82.563  42.431  0.00  0.00    +0.072 A 
ATOM      9  C   UNL     1      47.645  83.590  43.224  0.00  0.00    +0.017 A 
ATOM     10  C   UNL     1      48.461  84.576  43.768  0.00  0.00    +0.001 A 
ATOM     11  C   UNL     1      49.825  84.496  43.480  0.00  0.00    +0.004 A 
ATOM     12  C   UNL     1      50.334  83.492  42.698  0.00  0.00    +0.073 A 
ATOM     13  C   UNL     1      49.474  82.530  42.179  0.00  0.00    +0.020 A 
BRANCH  12  14
ATOM     14  C   UNL     1      51.771  83.443  42.410  0.00  0.00    +0.419 C 
ATOM     15  F   UNL     1      52.493  84.279  43.257  0.00  0.00    -0.166 F 
ATOM     16  F   UNL     1      52.077  83.712  41.087  0.00  0.00    -0.166 F 
ATOM     17  F   UNL     1      52.212  82.143  42.683  0.00  0.00    -0.166 F 
ENDBRANCH  12  14
ENDBRANCH   7   8
BRANCH   1  18
ATOM     18  C   UNL     1      45.462  79.658  40.858  0.00  0.00    +0.344 C 
ATOM     19  O   UNL     1      45.550  79.546  42.075  0.00  0.00    -0.245 OA
BRANCH  18  20
ATOM     20  O   UNL     1      44.929  78.553  40.183  0.00  0.00    -0.444 OA
BRANCH  20  21
ATOM     21  C   UNL     1      43.711  77.960  40.494  0.00  0.00    +0.226 C 
BRANCH  21  22
ATOM     22  C   UNL     1      42.540  78.251  39.633  0.00  0.00    +0.120 C 
BRANCH  22  28
ATOM     23  C   UNL     1      40.948  77.536  37.978  0.00  0.00    +0.105 C 
ATOM     24  C   UNL     1      40.331  76.337  37.339  0.00  0.00    +0.159 C 
ATOM     25  O   UNL     1      39.849  75.498  38.353  0.00  0.00    -0.351 OA
ATOM     26  C   UNL     1      40.989  74.931  38.924  0.00  0.00    +0.159 C 
ATOM     27  C   UNL     1      41.820  75.988  39.647  0.00  0.00    +0.105 C 
ATOM     28  N   UNL     1      41.888  77.204  38.977  0.00  0.00    -0.265 NA
ENDBRANCH  22  28
ENDBRANCH  21  22
ENDBRANCH  20  21
ENDBRANCH  18  20
ENDBRANCH   1  18
TORSDOF 7
