REMARK  Name = Morphine
REMARK  0 active torsions:
REMARK  status: ('A' for Active; 'I' for Inactive)
REMARK                            x       y       z     vdW  Elec       q    Type
REMARK                         _______ _______ _______ _____ _____    ______ ____
ROOT
ATOM      1  C   UNL     1      43.348  79.648  37.714  0.00  0.00    +0.090 C 
ATOM      2  N   UNL     1      44.618  80.095  38.263  0.00  0.00    -0.272 NA
ATOM      3  C   UNL     1      45.538  79.039  38.240  0.00  0.00    +0.073 C 
ATOM      4  C   UNL     1      46.519  78.824  39.328  0.00  0.00    +0.025 C 
ATOM      5  C   UNL     1      46.020  79.443  40.581  0.00  0.00    +0.067 C 
ATOM      6  C   UNL     1      44.576  79.527  40.507  0.00  0.00    +0.044 C 
ATOM      7  C   UNL     1      44.288  80.645  39.585  0.00  0.00    +0.066 C 
ATOM      8  C   UNL     1      45.016  81.934  39.683  0.00  0.00    +0.042 C 
ATOM      9  C   UNL     1      46.381  81.882  40.218  0.00  0.00    -0.022 A 
ATOM     10  C   UNL     1      46.773  80.700  40.716  0.00  0.00    +0.014 A 
ATOM     11  C   UNL     1      47.954  80.365  41.334  0.00  0.00    +0.173 A 
ATOM     12  C   UNL     1      48.851  81.412  41.434  0.00  0.00    +0.229 A 
ATOM     13  C   UNL     1      48.537  82.681  40.939  0.00  0.00    +0.045 A 
ATOM     14  C   UNL     1      47.284  82.905  40.328  0.00  0.00    -0.001 A 
ATOM     15  O   UNL     1      50.071  81.194  42.031  0.00  0.00    -0.283 OA
ATOM     16  O   UNL     1      47.868  78.985  41.700  0.00  0.00    -0.473 OA
ATOM     17  C   UNL     1      46.479  78.876  41.876  0.00  0.00    +0.204 C 
ATOM     18  C   UNL     1      45.692  77.789  42.339  0.00  0.00    +0.214 C 
ATOM     19  C   UNL     1      44.354  78.485  42.635  0.00  0.00    +0.005 C 
ATOM     20  C   UNL     1      43.845  79.317  41.734  0.00  0.00    -0.027 C 
ATOM     21  O   UNL     1      45.419  76.751  41.448  0.00  0.00    -0.214 OA
ENDROOT
TORSDOF 0
