REMARK  Name = Moxidectin
REMARK  3 active torsions:
REMARK  status: ('A' for Active; 'I' for Inactive)
REMARK    1  A    between atoms: N_15  and  O_16
REMARK    2  A    between atoms: C_19  and  C_21
REMARK    3  A    between atoms: C_22  and  C_23
REMARK                            x       y       z     vdW  Elec       q    Type
REMARK                         _______ _______ _______ _____ _____    ______ ____
ROOT
ATOM      1  C   UNL     1      45.018  74.615  41.306  0.00  0.00    +0.005 C 
ATOM      2  C   UNL     1      43.803  74.741  42.205  0.00  0.00    +0.026 C 
ATOM      3  C   UNL     1      44.145  75.653  43.331  0.00  0.00    +0.026 C 
ATOM      4  C   UNL     1      45.513  75.614  43.815  0.00  0.00    -0.048 C 
ATOM      5  C   UNL     1      46.316  76.649  43.942  0.00  0.00    -0.032 C 
ATOM      6  C   UNL     1      45.999  78.060  43.627  0.00  0.00    +0.055 C 
ATOM      7  C   UNL     1      45.769  78.352  42.190  0.00  0.00    +0.126 C 
ATOM      8  C   UNL     1      44.584  79.317  41.999  0.00  0.00    +0.074 C 
ATOM      9  C   UNL     1      44.227  79.218  40.536  0.00  0.00    +0.176 C 
ATOM     10  C   UNL     1      45.436  79.613  39.762  0.00  0.00    +0.100 C 
ATOM     11  C   UNL     1      46.676  79.794  40.592  0.00  0.00    +0.196 C 
ATOM     12  O   UNL     1      46.886  78.818  41.519  0.00  0.00    -0.336 OA
ATOM     13  C   UNL     1      47.842  79.717  39.588  0.00  0.00    +0.101 C 
ATOM     14  C   UNL     1      48.970  80.449  40.195  0.00  0.00    +0.082 C 
ATOM     15  N   UNL     1      49.898  80.944  39.479  0.00  0.00    -0.091 NA
ATOM     16  C   UNL     1      48.994  80.604  41.660  0.00  0.00    +0.071 C 
ATOM     17  C   UNL     1      47.719  81.298  42.040  0.00  0.00    +0.141 C 
ATOM     18  O   UNL     1      46.711  81.082  41.105  0.00  0.00    -0.332 OA
ATOM     19  C   UNL     1      50.248  81.284  42.080  0.00  0.00    +0.009 C 
ATOM     20  O   UNL     1      43.938  77.860  40.275  0.00  0.00    -0.452 OA
ATOM     21  C   UNL     1      43.158  77.379  39.284  0.00  0.00    +0.323 C 
ATOM     22  O   UNL     1      43.559  76.450  38.543  0.00  0.00    -0.250 OA
ATOM     23  C   UNL     1      41.770  77.867  38.948  0.00  0.00    +0.154 C 
ATOM     24  C   UNL     1      42.007  78.780  37.810  0.00  0.00    -0.019 C 
ATOM     25  C   UNL     1      41.581  78.706  36.587  0.00  0.00    -0.015 C 
ATOM     26  C   UNL     1      40.706  77.520  36.242  0.00  0.00    +0.200 C 
ATOM     27  C   UNL     1      39.935  77.286  37.489  0.00  0.00    +0.182 C 
ATOM     28  C   UNL     1      40.891  76.736  38.548  0.00  0.00    +0.185 C 
ATOM     29  C   UNL     1      39.974  76.178  39.543  0.00  0.00    +0.016 C 
ATOM     30  C   UNL     1      40.205  75.700  40.739  0.00  0.00    -0.004 C 
ATOM     31  C   UNL     1      41.413  75.528  41.536  0.00  0.00    -0.005 C 
ATOM     32  C   UNL     1      42.555  74.949  41.444  0.00  0.00    -0.026 C 
ATOM     33  C   UNL     1      38.623  76.207  38.833  0.00  0.00    +0.167 C 
ATOM     34  O   UNL     1      38.939  76.366  37.486  0.00  0.00    -0.346 OA
ATOM     35  O   UNL     1      41.639  75.679  37.978  0.00  0.00    -0.218 OA
ATOM     36  O   UNL     1      39.828  77.946  35.254  0.00  0.00    -0.216 OA
ATOM     37  C   UNL     1      41.870  79.669  35.504  0.00  0.00    +0.029 C 
ATOM     38  C   UNL     1      46.053  74.271  44.248  0.00  0.00    +0.026 C 
ENDROOT
BRANCH  17  39
ATOM     39  C   UNL     1      47.863  82.804  42.083  0.00  0.00    -0.021 C 
ATOM     40  C   UNL     1      48.809  83.394  42.730  0.00  0.00    -0.033 C 
ATOM     41  C   UNL     1      46.839  83.543  41.339  0.00  0.00    +0.028 C 
BRANCH  40  42
ATOM     42  C   UNL     1      50.249  83.399  42.592  0.00  0.00    +0.021 C 
ATOM     43  C   UNL     1      50.847  83.785  41.279  0.00  0.00    +0.005 C 
ATOM     44  C   UNL     1      50.949  84.099  43.756  0.00  0.00    +0.005 C 
ENDBRANCH  40  42
ENDBRANCH  17  39
BRANCH  15  45
ATOM     45  O   UNL     1      51.009  80.236  39.069  0.00  0.00    -0.374 OA
ATOM     46  C   UNL     1      51.947  79.788  40.050  0.00  0.00    +0.288 C 
ENDBRANCH  15  45
TORSDOF 3
