REMARK  Name = Moxifloxacin
REMARK  4 active torsions:
REMARK  status: ('A' for Active; 'I' for Inactive)
REMARK    1  A    between atoms: O_2  and  C_3
REMARK    2  A    between atoms: C_8  and  N_9
REMARK    3  A    between atoms: C_21  and  C_27
REMARK    4  A    between atoms: N_23  and  C_24
REMARK                            x       y       z     vdW  Elec       q    Type
REMARK                         _______ _______ _______ _____ _____    ______ ____
ROOT
ATOM      1  C   UNL     1      44.046  77.892  39.725  0.00  0.00    +0.170 A 
ATOM      2  C   UNL     1      44.720  79.088  39.841  0.00  0.00    +0.099 A 
ATOM      3  C   UNL     1      44.383  80.105  38.934  0.00  0.00    +0.060 A 
ATOM      4  C   UNL     1      43.426  79.915  37.980  0.00  0.00    +0.036 A 
ATOM      5  C   UNL     1      42.780  78.718  37.901  0.00  0.00    +0.157 A 
ATOM      6  C   UNL     1      43.054  77.665  38.758  0.00  0.00    +0.112 A 
ATOM      7  F   UNL     1      41.812  78.481  36.962  0.00  0.00    -0.203 F 
ATOM      8  C   UNL     1      45.049  81.310  39.046  0.00  0.00    +0.205 A 
ATOM      9  O   UNL     1      44.750  82.242  38.221  0.00  0.00    -0.286 OA
ATOM     10  C   UNL     1      46.003  81.540  39.992  0.00  0.00    +0.136 A 
ATOM     11  C   UNL     1      46.275  80.483  40.854  0.00  0.00    +0.086 A 
ATOM     12  N   UNL     1      45.666  79.285  40.802  0.00  0.00    -0.325 N 
ENDROOT
BRANCH   6  13
ATOM     13  N   UNL     1      42.356  76.441  38.659  0.00  0.00    -0.302 N 
ATOM     14  C   UNL     1      42.337  75.470  39.770  0.00  0.00    +0.092 C 
ATOM     15  C   UNL     1      41.225  74.532  39.468  0.00  0.00    +0.038 C 
ATOM     16  C   UNL     1      40.292  74.222  40.590  0.00  0.00    +0.005 C 
ATOM     17  C   UNL     1      39.175  73.353  39.995  0.00  0.00    +0.019 C 
ATOM     18  C   UNL     1      38.576  73.944  38.765  0.00  0.00    +0.089 C 
ATOM     19  N   UNL     1      39.557  74.399  37.786  0.00  0.00    -0.218 NA
ATOM     20  C   UNL     1      40.397  75.337  38.450  0.00  0.00    +0.094 C 
ATOM     21  C   UNL     1      41.535  75.881  37.605  0.00  0.00    +0.108 C 
ENDBRANCH   6  13
BRANCH  12  22
ATOM     22  C   UNL     1      45.944  78.236  41.756  0.00  0.00    +0.086 C 
ATOM     23  C   UNL     1      47.013  77.262  41.411  0.00  0.00    +0.024 C 
ATOM     24  C   UNL     1      47.351  78.282  42.398  0.00  0.00    +0.024 C 
ENDBRANCH  12  22
BRANCH  10  25
ATOM     25  C   UNL     1      46.680  82.817  40.078  0.00  0.00    +0.392 C 
ATOM     26  O   UNL     1      47.365  83.068  41.098  0.00  0.00    -0.240 OA
ATOM     27  O   UNL     1      46.608  83.777  39.084  0.00  0.00    -0.240 OA
ENDBRANCH  10  25
BRANCH   1  29
ATOM     28  C   UNL     1      43.825  76.792  41.909  0.00  0.00    +0.253 C 
ATOM     29  O   UNL     1      44.303  76.816  40.554  0.00  0.00    -0.469 OA
ENDBRANCH   1  29
TORSDOF 4
