REMARK  Name = MOXONIDINE
REMARK  2 active torsions:
REMARK  status: ('A' for Active; 'I' for Inactive)
REMARK    1  A    between atoms: C_4  and  O_15
REMARK    2  A    between atoms: C_5  and  N_9
REMARK                            x       y       z     vdW  Elec       q    Type
REMARK                         _______ _______ _______ _____ _____    ______ ____
ROOT
ATOM      1  C   UNL     1      43.142  75.538  41.021  0.00  0.00    +0.074 C 
ATOM      2  C   UNL     1      43.446  76.853  40.398  0.00  0.00    +0.144 A 
ATOM      3  N   UNL     1      44.405  77.613  40.947  0.00  0.00    -0.196 NA
ATOM      4  C   UNL     1      44.731  78.802  40.444  0.00  0.00    +0.244 A 
ATOM      5  C   UNL     1      44.062  79.279  39.313  0.00  0.00    +0.155 A 
ATOM      6  C   UNL     1      43.080  78.499  38.750  0.00  0.00    +0.159 A 
ATOM      7  N   UNL     1      42.807  77.313  39.315  0.00  0.00    -0.218 NA
ATOM      8 CL   UNL     1      42.237  79.091  37.331  0.00  0.00    -0.060 Cl
ENDROOT
BRANCH   5   9
ATOM      9  N   UNL     1      44.379  80.533  38.749  0.00  0.00    -0.173 NA
ATOM     10  C   UNL     1      45.647  81.168  38.972  0.00  0.00    +0.221 C 
ATOM     11  N   UNL     1      46.454  80.903  39.928  0.00  0.00    -0.239 NA
ATOM     12  C   UNL     1      47.623  81.723  39.845  0.00  0.00    +0.152 C 
ATOM     13  C   UNL     1      47.192  82.881  38.975  0.00  0.00    +0.141 C 
ATOM     14  N   UNL     1      46.198  82.210  38.152  0.00  0.00    -0.204 NA
ENDBRANCH   5   9
BRANCH   4  15
ATOM     15  O   UNL     1      45.717  79.623  40.979  0.00  0.00    -0.455 OA
ATOM     16  C   UNL     1      46.385  79.162  42.138  0.00  0.00    +0.254 C 
ENDBRANCH   4  15
TORSDOF 2
