REMARK  Name = Mozavaptan
REMARK  4 active torsions:
REMARK  status: ('A' for Active; 'I' for Inactive)
REMARK    1  A    between atoms: C_7  and  C_8
REMARK    2  A    between atoms: N_10  and  C_11
REMARK    3  A    between atoms: C_14  and  C_17
REMARK    4  A    between atoms: C_23  and  N_30
REMARK                            x       y       z     vdW  Elec       q    Type
REMARK                         _______ _______ _______ _____ _____    ______ ____
ROOT
ATOM      1  C   UNL     1      47.172  80.736  41.316  0.00  0.00    +0.074 A 
ATOM      2  C   UNL     1      46.222  81.539  40.720  0.00  0.00    +0.017 A 
ATOM      3  C   UNL     1      45.138  81.011  40.061  0.00  0.00    +0.006 A 
ATOM      4  C   UNL     1      44.981  79.660  39.987  0.00  0.00    +0.054 A 
ATOM      5  C   UNL     1      45.898  78.828  40.566  0.00  0.00    +0.006 A 
ATOM      6  C   UNL     1      46.979  79.377  41.220  0.00  0.00    +0.017 A 
ENDROOT
BRANCH   4   7
ATOM      7  C   UNL     1      43.808  79.100  39.277  0.00  0.00    +0.253 C 
ATOM      8  O   UNL     1      43.270  79.832  38.455  0.00  0.00    -0.270 OA
ATOM      9  N   UNL     1      43.435  77.805  39.608  0.00  0.00    -0.255 N 
ATOM     10  C   UNL     1      44.215  77.068  40.605  0.00  0.00    +0.099 C 
ATOM     11  C   UNL     1      43.472  77.016  41.919  0.00  0.00    +0.024 C 
ATOM     12  C   UNL     1      42.032  76.697  41.857  0.00  0.00    +0.022 C 
ATOM     13  C   UNL     1      41.620  75.611  40.885  0.00  0.00    +0.081 C 
ATOM     14  C   UNL     1      41.406  76.285  39.578  0.00  0.00    +0.006 A 
ATOM     15  C   UNL     1      40.292  75.876  38.874  0.00  0.00    -0.002 A 
ATOM     16  C   UNL     1      40.020  76.403  37.624  0.00  0.00    -0.000 A 
ATOM     17  C   UNL     1      40.888  77.347  37.096  0.00  0.00    +0.001 A 
ATOM     18  C   UNL     1      42.007  77.772  37.781  0.00  0.00    +0.015 A 
ATOM     19  C   UNL     1      42.250  77.230  39.026  0.00  0.00    +0.051 A 
BRANCH  13  20
ATOM     20  N   UNL     1      42.677  74.650  40.756  0.00  0.00    -0.268 NA
ATOM     21  C   UNL     1      42.272  73.291  40.790  0.00  0.00    +0.090 C 
ATOM     22  C   UNL     1      43.722  74.987  39.859  0.00  0.00    +0.090 C 
ENDBRANCH  13  20
ENDBRANCH   4   7
BRANCH   1  25
ATOM     23  C   UNL     1      48.647  82.651  41.758  0.00  0.00    +0.269 C 
ATOM     24  O   UNL     1      48.123  83.183  40.710  0.00  0.00    -0.268 OA
ATOM     25  N   UNL     1      48.284  81.306  41.992  0.00  0.00    -0.175 NA
BRANCH  23  32
ATOM     26  C   UNL     1      51.579  82.286  41.657  0.00  0.00    +0.031 C 
ATOM     27  C   UNL     1      50.883  83.289  42.523  0.00  0.00    -0.017 A 
ATOM     28  C   UNL     1      51.671  84.102  43.339  0.00  0.00    -0.004 A 
ATOM     29  C   UNL     1      51.124  85.050  44.168  0.00  0.00    -0.000 A 
ATOM     30  C   UNL     1      49.760  85.228  44.219  0.00  0.00    +0.000 A 
ATOM     31  C   UNL     1      48.984  84.425  43.413  0.00  0.00    +0.004 A 
ATOM     32  C   UNL     1      49.531  83.459  42.567  0.00  0.00    +0.051 A 
ENDBRANCH  23  32
ENDBRANCH   1  25
TORSDOF 4
