REMARK  Name = Mycophenolate_mofetil
REMARK  10 active torsions:
REMARK  status: ('A' for Active; 'I' for Inactive)
REMARK    1  A    between atoms: C_10  and  C_14
REMARK    2  A    between atoms: C_11  and  O_12
REMARK    3  A    between atoms: C_14  and  C_15
REMARK    4  A    between atoms: C_16  and  C_18
REMARK    5  A    between atoms: C_18  and  C_19
REMARK    6  A    between atoms: C_19  and  C_20
REMARK    7  A    between atoms: C_20  and  O_22
REMARK    8  A    between atoms: O_22  and  C_23
REMARK    9  A    between atoms: C_23  and  C_24
REMARK   10  A    between atoms: C_24  and  N_25
REMARK                            x       y       z     vdW  Elec       q    Type
REMARK                         _______ _______ _______ _____ _____    ______ ____
ROOT
ATOM      1  C   UNL     1      46.245  81.191  40.406  0.00  0.00    -0.030 C 
ATOM      2  C   UNL     1      45.656  80.670  39.324  0.00  0.00    -0.047 C 
ATOM      3  C   UNL     1      45.855  81.451  38.056  0.00  0.00    +0.026 C 
ENDROOT
BRANCH   1   4
ATOM      4  C   UNL     1      47.316  80.637  41.227  0.00  0.00    +0.058 C 
BRANCH   4  14
ATOM      5  C   UNL     1      47.900  85.024  43.517  0.00  0.00    +0.034 C 
ATOM      6  C   UNL     1      48.485  83.830  42.856  0.00  0.00    +0.012 A 
ATOM      7  C   UNL     1      49.879  83.746  42.742  0.00  0.00    +0.030 A 
ATOM      8  C   UNL     1      50.929  84.666  43.179  0.00  0.00    +0.235 C 
ATOM      9  O   UNL     1      52.129  84.038  42.787  0.00  0.00    -0.440 OA
ATOM     10  C   UNL     1      51.856  82.833  42.163  0.00  0.00    +0.344 C 
ATOM     11  O   UNL     1      52.692  82.000  41.681  0.00  0.00    -0.245 OA
ATOM     12  C   UNL     1      50.418  82.624  42.123  0.00  0.00    +0.114 A 
ATOM     13  C   UNL     1      49.612  81.625  41.634  0.00  0.00    +0.201 A 
ATOM     14  C   UNL     1      48.254  81.694  41.738  0.00  0.00    +0.055 A 
ATOM     15  C   UNL     1      47.693  82.813  42.357  0.00  0.00    +0.134 A 
ATOM     16  O   UNL     1      50.197  80.533  41.029  0.00  0.00    -0.287 OA
BRANCH  15  17
ATOM     17  O   UNL     1      46.319  82.951  42.498  0.00  0.00    -0.472 OA
ATOM     18  C   UNL     1      45.614  82.015  43.294  0.00  0.00    +0.252 C 
ENDBRANCH  15  17
ENDBRANCH   4  14
ENDBRANCH   1   4
BRANCH   2  19
ATOM     19  C   UNL     1      44.864  79.441  39.427  0.00  0.00    +0.033 C 
BRANCH  19  20
ATOM     20  C   UNL     1      43.550  79.425  38.766  0.00  0.00    +0.114 C 
BRANCH  20  21
ATOM     21  C   UNL     1      42.716  78.227  38.859  0.00  0.00    +0.317 C 
ATOM     22  O   UNL     1      42.983  77.151  39.411  0.00  0.00    -0.250 OA
BRANCH  21  23
ATOM     23  O   UNL     1      41.452  78.339  38.234  0.00  0.00    -0.447 OA
BRANCH  23  24
ATOM     24  C   UNL     1      40.996  77.291  37.428  0.00  0.00    +0.226 C 
BRANCH  24  25
ATOM     25  C   UNL     1      39.912  76.483  38.032  0.00  0.00    +0.120 C 
BRANCH  25  26
ATOM     26  N   UNL     1      39.527  75.323  37.302  0.00  0.00    -0.265 NA
ATOM     27  C   UNL     1      38.632  74.421  37.940  0.00  0.00    +0.105 C 
ATOM     28  C   UNL     1      38.010  73.485  36.920  0.00  0.00    +0.159 C 
ATOM     29  O   UNL     1      38.892  73.176  35.894  0.00  0.00    -0.351 OA
ATOM     30  C   UNL     1      39.325  74.271  35.177  0.00  0.00    +0.159 C 
ATOM     31  C   UNL     1      39.175  75.577  35.922  0.00  0.00    +0.105 C 
ENDBRANCH  25  26
ENDBRANCH  24  25
ENDBRANCH  23  24
ENDBRANCH  21  23
ENDBRANCH  20  21
ENDBRANCH  19  20
ENDBRANCH   2  19
TORSDOF 10
