REMARK  Name = N-Acetyl-D-glucosamine
REMARK  2 active torsions:
REMARK  status: ('A' for Active; 'I' for Inactive)
REMARK    1  A    between atoms: N_4  and  C_5
REMARK    2  A    between atoms: C_8  and  C_12
REMARK                            x       y       z     vdW  Elec       q    Type
REMARK                         _______ _______ _______ _____ _____    ______ ____
ROOT
ATOM      1  C   UNL     1      45.111  80.865  40.060  0.00  0.00    +0.187 C 
ATOM      2  C   UNL     1      45.549  82.198  39.508  0.00  0.00    +0.209 C 
ATOM      3  C   UNL     1      46.909  82.486  40.085  0.00  0.00    +0.214 C 
ATOM      4  C   UNL     1      47.753  81.240  40.122  0.00  0.00    +0.184 C 
ATOM      5  O   UNL     1      47.269  80.280  40.974  0.00  0.00    -0.324 OA
ATOM      6  C   UNL     1      45.911  80.457  41.274  0.00  0.00    +0.292 C 
ATOM      7  O   UNL     1      45.448  79.288  41.847  0.00  0.00    -0.188 OA
ATOM      8  O   UNL     1      47.547  83.540  39.445  0.00  0.00    -0.218 OA
ATOM      9  O   UNL     1      45.538  82.231  38.123  0.00  0.00    -0.218 OA
ENDROOT
BRANCH   1  13
ATOM     10  C   UNL     1      43.436  78.619  37.503  0.00  0.00    +0.096 C 
ATOM     11  C   UNL     1      43.875  79.018  38.868  0.00  0.00    +0.242 C 
ATOM     12  O   UNL     1      43.266  78.668  39.912  0.00  0.00    -0.273 OA
ATOM     13  N   UNL     1      45.038  79.837  39.059  0.00  0.00    -0.199 NA
ENDBRANCH   1  13
BRANCH   4  14
ATOM     14  C   UNL     1      49.202  81.616  40.459  0.00  0.00    +0.214 C 
ATOM     15  O   UNL     1      49.237  82.493  41.542  0.00  0.00    -0.218 OA
ENDBRANCH   4  14
TORSDOF 2
