REMARK  Name = NABILONE
REMARK  6 active torsions:
REMARK  status: ('A' for Active; 'I' for Inactive)
REMARK    1  A    between atoms: C_2  and  C_3
REMARK    2  A    between atoms: C_3  and  C_4
REMARK    3  A    between atoms: C_4  and  C_5
REMARK    4  A    between atoms: C_5  and  C_6
REMARK    5  A    between atoms: C_6  and  C_7
REMARK    6  A    between atoms: C_7  and  C_10
REMARK                            x       y       z     vdW  Elec       q    Type
REMARK                         _______ _______ _______ _____ _____    ______ ____
ROOT
ATOM      1  C   UNL     1      47.328  81.572  40.476  0.00  0.00    -0.017 A 
ATOM      2  C   UNL     1      46.669  81.878  39.309  0.00  0.00    +0.038 A 
ATOM      3  C   UNL     1      45.511  81.195  39.034  0.00  0.00    +0.194 A 
ATOM      4  C   UNL     1      44.970  80.212  39.868  0.00  0.00    +0.051 A 
ATOM      5  C   UNL     1      43.734  79.504  39.570  0.00  0.00    +0.039 C 
ATOM      6  C   UNL     1      43.301  79.599  38.122  0.00  0.00    +0.069 C 
ATOM      7  C   UNL     1      42.289  78.484  37.954  0.00  0.00    +0.151 C 
ATOM      8  O   UNL     1      41.116  78.679  37.764  0.00  0.00    -0.296 OA
ATOM      9  C   UNL     1      42.824  77.085  38.036  0.00  0.00    +0.065 C 
ATOM     10  C   UNL     1      44.071  77.163  38.925  0.00  0.00    +0.012 C 
ATOM     11  C   UNL     1      43.704  78.094  40.066  0.00  0.00    +0.042 C 
ATOM     12  C   UNL     1      44.573  77.791  41.245  0.00  0.00    +0.134 C 
ATOM     13  O   UNL     1      45.111  78.951  41.856  0.00  0.00    -0.483 OA
ATOM     14  C   UNL     1      45.650  79.925  41.032  0.00  0.00    +0.137 A 
ATOM     15  C   UNL     1      46.831  80.610  41.331  0.00  0.00    +0.032 A 
ATOM     16  C   UNL     1      45.752  76.897  40.819  0.00  0.00    +0.044 C 
ATOM     17  C   UNL     1      43.808  76.951  42.252  0.00  0.00    +0.044 C 
ATOM     18  O   UNL     1      44.851  81.494  37.876  0.00  0.00    -0.287 OA
ENDROOT
BRANCH   1  19
ATOM     19  C   UNL     1      48.594  82.260  40.872  0.00  0.00    +0.019 C 
ATOM     20  C   UNL     1      48.228  83.111  42.053  0.00  0.00    +0.004 C 
ATOM     21  C   UNL     1      48.835  83.246  39.724  0.00  0.00    +0.004 C 
BRANCH  19  22
ATOM     22  C   UNL     1      49.707  81.363  41.132  0.00  0.00    +0.004 C 
BRANCH  22  23
ATOM     23  C   UNL     1      50.958  81.802  41.742  0.00  0.00    +0.000 C 
BRANCH  23  24
ATOM     24  C   UNL     1      50.995  82.500  43.031  0.00  0.00    +0.000 C 
BRANCH  24  25
ATOM     25  C   UNL     1      52.143  83.434  43.277  0.00  0.00    +0.000 C 
BRANCH  25  27
ATOM     26  C   UNL     1      50.703  85.308  44.104  0.00  0.00    +0.000 C 
ATOM     27  C   UNL     1      51.761  84.887  43.106  0.00  0.00    +0.000 C 
ENDBRANCH  25  27
ENDBRANCH  24  25
ENDBRANCH  23  24
ENDBRANCH  22  23
ENDBRANCH  19  22
ENDBRANCH   1  19
TORSDOF 6
