REMARK  Name = NADH
REMARK  11 active torsions:
REMARK  status: ('A' for Active; 'I' for Inactive)
REMARK    1  A    between atoms: N_4  and  C_10
REMARK    2  A    between atoms: C_6  and  C_7
REMARK    3  A    between atoms: C_13  and  C_15
REMARK    4  A    between atoms: C_15  and  O_16
REMARK    5  A    between atoms: O_16  and  P_17
REMARK    6  A    between atoms: P_17  and  O_20
REMARK    7  A    between atoms: O_20  and  P_21
REMARK    8  A    between atoms: P_21  and  O_24
REMARK    9  A    between atoms: O_24  and  C_25
REMARK   10  A    between atoms: C_25  and  C_26
REMARK   11  A    between atoms: C_29  and  N_31
REMARK                            x       y       z     vdW  Elec       q    Type
REMARK                         _______ _______ _______ _____ _____    ______ ____
ROOT
ATOM      1  O   UNL     1      48.978  76.086  44.096  0.00  0.00    -0.183 OA
ENDROOT
BRANCH   1   2
ATOM      2  P   UNL     1      49.922  77.121  45.069  0.00  0.00    +0.514 P 
ATOM      3  O   UNL     1      49.045  78.106  45.808  0.00  0.00    -0.224 OA
ATOM      4  O   UNL     1      50.985  77.936  44.032  0.00  0.00    -0.116 OA
BRANCH   2   5
ATOM      5  O   UNL     1      50.810  76.226  46.192  0.00  0.00    -0.269 OA
BRANCH   5   6
ATOM      6  C   UNL     1      52.147  76.275  45.873  0.00  0.00    +0.186 C 
BRANCH   6  10
ATOM      7  C   UNL     1      54.516  76.581  48.223  0.00  0.00    +0.230 C 
ATOM      8  C   UNL     1      55.236  76.158  46.986  0.00  0.00    +0.231 C 
ATOM      9  C   UNL     1      54.261  75.131  46.405  0.00  0.00    +0.216 C 
ATOM     10  C   UNL     1      52.956  75.569  46.965  0.00  0.00    +0.180 C 
ATOM     11  O   UNL     1      53.153  76.422  48.008  0.00  0.00    -0.332 OA
ATOM     12  O   UNL     1      54.662  73.871  46.868  0.00  0.00    -0.218 OA
ATOM     13  O   UNL     1      55.418  77.144  46.043  0.00  0.00    -0.216 OA
BRANCH   7  17
ATOM     14  C   UNL     1      55.516  80.652  49.279  0.00  0.00    +0.060 C 
ATOM     15  C   UNL     1      54.536  80.303  48.253  0.00  0.00    -0.005 C 
ATOM     16  C   UNL     1      54.236  79.064  47.938  0.00  0.00    +0.063 C 
ATOM     17  N   UNL     1      54.841  77.949  48.570  0.00  0.00    -0.261 N 
ATOM     18  C   UNL     1      55.792  78.215  49.565  0.00  0.00    +0.068 C 
ATOM     19  C   UNL     1      56.115  79.455  49.904  0.00  0.00    +0.054 C 
BRANCH  19  20
ATOM     20  C   UNL     1      57.129  79.618  50.965  0.00  0.00    +0.282 C 
ATOM     21  O   UNL     1      57.477  80.761  51.283  0.00  0.00    -0.267 OA
ATOM     22  N   UNL     1      57.675  78.489  51.590  0.00  0.00    -0.084 NA
ENDBRANCH  19  20
ENDBRANCH   7  17
ENDBRANCH   6  10
ENDBRANCH   5   6
ENDBRANCH   2   5
ENDBRANCH   1   2
BRANCH   1  23
ATOM     23  P   UNL     1      47.851  75.355  45.141  0.00  0.00    +0.514 P 
ATOM     24  O   UNL     1      47.977  73.853  45.127  0.00  0.00    -0.224 OA
ATOM     25  O   UNL     1      48.183  75.975  46.698  0.00  0.00    -0.116 OA
BRANCH  23  26
ATOM     26  O   UNL     1      46.301  75.866  44.712  0.00  0.00    -0.269 OA
BRANCH  26  27
ATOM     27  C   UNL     1      46.069  75.629  43.356  0.00  0.00    +0.186 C 
BRANCH  27  28
ATOM     28  C   UNL     1      44.764  76.286  42.918  0.00  0.00    +0.180 C 
ATOM     29  C   UNL     1      44.399  75.770  41.545  0.00  0.00    +0.216 C 
ATOM     30  C   UNL     1      44.980  76.864  40.669  0.00  0.00    +0.234 C 
ATOM     31  C   UNL     1      44.717  78.068  41.561  0.00  0.00    +0.241 C 
ATOM     32  O   UNL     1      44.961  77.636  42.858  0.00  0.00    -0.331 OA
ATOM     33  O   UNL     1      46.322  76.597  40.509  0.00  0.00    -0.216 OA
ATOM     34  O   UNL     1      44.961  74.535  41.282  0.00  0.00    -0.218 OA
BRANCH  31  35
ATOM     35  N   UNL     1      45.492  79.218  41.214  0.00  0.00    -0.269 N 
ATOM     36  C   UNL     1      46.597  79.744  41.782  0.00  0.00    +0.182 A 
ATOM     37  N   UNL     1      47.000  80.827  41.138  0.00  0.00    -0.219 NA
ATOM     38  C   UNL     1      46.144  81.025  40.120  0.00  0.00    +0.152 A 
ATOM     39  C   UNL     1      46.030  81.967  39.112  0.00  0.00    +0.192 A 
ATOM     40  N   UNL     1      45.045  81.918  38.206  0.00  0.00    -0.204 NA
ATOM     41  C   UNL     1      44.136  80.931  38.268  0.00  0.00    +0.202 A 
ATOM     42  N   UNL     1      44.240  80.014  39.243  0.00  0.00    -0.205 NA
ATOM     43  C   UNL     1      45.208  80.020  40.174  0.00  0.00    +0.169 A 
ATOM     44  N   UNL     1      46.980  83.020  39.026  0.00  0.00    -0.105 NA
ENDBRANCH  31  35
ENDBRANCH  27  28
ENDBRANCH  26  27
ENDBRANCH  23  26
ENDBRANCH   1  23
TORSDOF 11
