REMARK  Name = Nadifloxacin
REMARK  2 active torsions:
REMARK  status: ('A' for Active; 'I' for Inactive)
REMARK    1  A    between atoms: C_9  and  C_24
REMARK    2  A    between atoms: C_15  and  N_16
REMARK                            x       y       z     vdW  Elec       q    Type
REMARK                         _______ _______ _______ _____ _____    ______ ____
ROOT
ATOM      1  C   UNL     1      46.696  78.184  42.620  0.00  0.00    +0.024 C 
ATOM      2  C   UNL     1      45.356  78.196  41.926  0.00  0.00    +0.086 C 
ATOM      3  C   UNL     1      45.008  76.844  41.351  0.00  0.00    +0.027 C 
ATOM      4  C   UNL     1      43.502  76.938  41.044  0.00  0.00    +0.031 C 
ATOM      5  C   UNL     1      43.404  77.979  39.987  0.00  0.00    +0.009 A 
ATOM      6  C   UNL     1      44.297  79.051  39.961  0.00  0.00    +0.060 A 
ATOM      7  N   UNL     1      45.261  79.176  40.894  0.00  0.00    -0.328 N 
ATOM      8  C   UNL     1      46.122  80.219  40.861  0.00  0.00    +0.086 A 
ATOM      9  C   UNL     1      46.085  81.208  39.901  0.00  0.00    +0.136 A 
ATOM     10  C   UNL     1      45.102  81.083  38.947  0.00  0.00    +0.205 A 
ATOM     11  O   UNL     1      45.002  81.943  38.039  0.00  0.00    -0.286 OA
ATOM     12  C   UNL     1      44.214  80.010  38.980  0.00  0.00    +0.057 A 
ATOM     13  C   UNL     1      43.255  79.943  37.999  0.00  0.00    +0.036 A 
ATOM     14  C   UNL     1      42.363  78.893  38.005  0.00  0.00    +0.153 A 
ATOM     15  C   UNL     1      42.453  77.927  39.001  0.00  0.00    +0.073 A 
ATOM     16  F   UNL     1      41.437  78.856  37.033  0.00  0.00    -0.203 F 
ENDROOT
BRANCH  15  17
ATOM     17  N   UNL     1      41.533  76.864  38.988  0.00  0.00    -0.306 N 
ATOM     18  C   UNL     1      40.266  76.855  39.695  0.00  0.00    +0.093 C 
ATOM     19  C   UNL     1      39.320  75.995  38.869  0.00  0.00    +0.054 C 
ATOM     20  C   UNL     1      39.796  74.552  39.057  0.00  0.00    +0.155 C 
ATOM     21  C   UNL     1      41.306  74.494  39.037  0.00  0.00    +0.054 C 
ATOM     22  C   UNL     1      41.847  75.674  38.220  0.00  0.00    +0.093 C 
ATOM     23  O   UNL     1      39.270  74.119  40.272  0.00  0.00    -0.223 OA
ENDBRANCH  15  17
BRANCH   9  24
ATOM     24  C   UNL     1      47.026  82.317  39.893  0.00  0.00    +0.392 C 
ATOM     25  O   UNL     1      47.028  83.085  38.903  0.00  0.00    -0.240 OA
ATOM     26  O   UNL     1      47.909  82.556  40.921  0.00  0.00    -0.240 OA
ENDBRANCH   9  24
TORSDOF 2
