REMARK  Name = Nadolol
REMARK  6 active torsions:
REMARK  status: ('A' for Active; 'I' for Inactive)
REMARK    1  A    between atoms: C_2  and  N_5
REMARK    2  A    between atoms: N_5  and  C_6
REMARK    3  A    between atoms: C_6  and  C_7
REMARK    4  A    between atoms: C_7  and  C_8
REMARK    5  A    between atoms: C_8  and  O_9
REMARK    6  A    between atoms: O_9  and  C_10
REMARK                            x       y       z     vdW  Elec       q    Type
REMARK                         _______ _______ _______ _____ _____    ______ ____
ROOT
ATOM      1  C   UNL     1      46.331  79.590  41.448  0.00  0.00    +0.134 A 
ATOM      2  C   UNL     1      46.253  78.621  42.439  0.00  0.00    +0.037 A 
ATOM      3  C   UNL     1      45.376  77.538  42.334  0.00  0.00    +0.003 A 
ATOM      4  C   UNL     1      44.560  77.397  41.244  0.00  0.00    -0.004 A 
ATOM      5  C   UNL     1      44.629  78.369  40.239  0.00  0.00    -0.021 A 
ATOM      6  C   UNL     1      45.487  79.422  40.349  0.00  0.00    +0.011 A 
ATOM      7  C   UNL     1      45.513  80.412  39.261  0.00  0.00    +0.065 C 
ATOM      8  C   UNL     1      44.031  80.718  38.991  0.00  0.00    +0.187 C 
ATOM      9  C   UNL     1      43.468  79.495  38.324  0.00  0.00    +0.187 C 
ATOM     10  C   UNL     1      43.749  78.230  39.044  0.00  0.00    +0.062 C 
ATOM     11  O   UNL     1      44.086  79.409  37.057  0.00  0.00    -0.220 OA
ATOM     12  O   UNL     1      43.892  81.843  38.221  0.00  0.00    -0.220 OA
ENDROOT
BRANCH   1  13
ATOM     13  O   UNL     1      47.158  80.668  41.485  0.00  0.00    -0.473 OA
BRANCH  13  14
ATOM     14  C   UNL     1      47.129  81.874  42.098  0.00  0.00    +0.239 C 
BRANCH  14  15
ATOM     15  C   UNL     1      48.263  82.759  41.681  0.00  0.00    +0.213 C 
ATOM     16  O   UNL     1      47.797  84.087  41.844  0.00  0.00    -0.218 OA
BRANCH  15  17
ATOM     17  C   UNL     1      49.397  82.567  42.691  0.00  0.00    +0.125 C 
BRANCH  17  18
ATOM     18  N   UNL     1      50.363  83.620  42.463  0.00  0.00    -0.218 NA
BRANCH  18  20
ATOM     19  C   UNL     1      51.019  82.472  44.475  0.00  0.00    +0.017 C 
ATOM     20  C   UNL     1      51.472  83.383  43.368  0.00  0.00    +0.060 C 
ATOM     21  C   UNL     1      52.628  82.779  42.591  0.00  0.00    +0.017 C 
ATOM     22  C   UNL     1      51.941  84.721  43.887  0.00  0.00    +0.017 C 
ENDBRANCH  18  20
ENDBRANCH  17  18
ENDBRANCH  15  17
ENDBRANCH  14  15
ENDBRANCH  13  14
ENDBRANCH   1  13
TORSDOF 6
