REMARK  Name = Nafamostat
REMARK  5 active torsions:
REMARK  status: ('A' for Active; 'I' for Inactive)
REMARK    1  A    between atoms: C_3  and  N_23
REMARK    2  A    between atoms: C_6  and  C_7
REMARK    3  A    between atoms: C_7  and  O_9
REMARK    4  A    between atoms: O_9  and  C_10
REMARK    5  A    between atoms: C_17  and  C_20
REMARK                            x       y       z     vdW  Elec       q    Type
REMARK                         _______ _______ _______ _____ _____    ______ ____
ROOT
ATOM      1  O   UNL     1      44.885  79.469  38.921  0.00  0.00    -0.421 OA
ENDROOT
BRANCH   1   2
ATOM      2  C   UNL     1      45.951  80.221  39.435  0.00  0.00    +0.149 A 
ATOM      3  C   UNL     1      46.833  79.671  40.343  0.00  0.00    +0.038 A 
ATOM      4  C   UNL     1      47.897  80.408  40.862  0.00  0.00    +0.003 A 
ATOM      5  C   UNL     1      48.081  81.715  40.465  0.00  0.00    +0.000 A 
ATOM      6  C   UNL     1      47.206  82.294  39.549  0.00  0.00    +0.003 A 
ATOM      7  C   UNL     1      46.157  81.529  39.054  0.00  0.00    +0.038 A 
ATOM      8  C   UNL     1      49.144  82.417  40.998  0.00  0.00    +0.003 A 
ATOM      9  C   UNL     1      50.031  81.875  41.908  0.00  0.00    +0.039 A 
ATOM     10  C   UNL     1      49.824  80.562  42.290  0.00  0.00    +0.003 A 
ATOM     11  C   UNL     1      48.770  79.843  41.771  0.00  0.00    +0.000 A 
BRANCH   9  12
ATOM     12  C   UNL     1      51.146  82.663  42.448  0.00  0.00    +0.205 C 
ATOM     13  N   UNL     1      51.232  82.808  43.732  0.00  0.00    -0.125 NA
ATOM     14  N   UNL     1      52.064  83.219  41.544  0.00  0.00    -0.125 NA
ENDBRANCH   9  12
ENDBRANCH   1   2
BRANCH   1  15
ATOM     15  C   UNL     1      43.932  78.900  39.754  0.00  0.00    +0.346 C 
ATOM     16  O   UNL     1      44.141  78.942  40.978  0.00  0.00    -0.244 OA
BRANCH  15  22
ATOM     17  C   UNL     1      42.194  78.773  37.996  0.00  0.00    +0.008 A 
ATOM     18  C   UNL     1      41.063  78.162  37.442  0.00  0.00    +0.019 A 
ATOM     19  C   UNL     1      40.503  77.062  38.056  0.00  0.00    +0.085 A 
ATOM     20  C   UNL     1      41.083  76.586  39.222  0.00  0.00    +0.019 A 
ATOM     21  C   UNL     1      42.192  77.196  39.755  0.00  0.00    +0.008 A 
ATOM     22  C   UNL     1      42.760  78.293  39.151  0.00  0.00    +0.076 A 
BRANCH  19  23
ATOM     23  N   UNL     1      39.357  76.451  37.487  0.00  0.00    -0.208 NA
ATOM     24  C   UNL     1      39.492  75.643  36.517  0.00  0.00    +0.289 C 
ATOM     25  N   UNL     1      40.496  74.659  36.551  0.00  0.00    -0.104 NA
ATOM     26  N   UNL     1      38.634  75.733  35.403  0.00  0.00    -0.104 NA
ENDBRANCH  19  23
ENDBRANCH  15  22
ENDBRANCH   1  15
TORSDOF 5
