REMARK  Name = Nafarelin
REMARK  33 active torsions:
REMARK  status: ('A' for Active; 'I' for Inactive)
REMARK    1  A    between atoms: C_2  and  C_4
REMARK    2  A    between atoms: C_4  and  C_5
REMARK    3  A    between atoms: C_5  and  C_6
REMARK    4  A    between atoms: C_5  and  N_31
REMARK    5  A    between atoms: N_8  and  C_9
REMARK    6  A    between atoms: C_9  and  C_10
REMARK    7  A    between atoms: C_9  and  C_17
REMARK    8  A    between atoms: C_10  and  C_11
REMARK    9  A    between atoms: C_11  and  C_12
REMARK   10  A    between atoms: C_12  and  N_13
REMARK   11  A    between atoms: C_23  and  C_24
REMARK   12  A    between atoms: N_26  and  C_27
REMARK   13  A    between atoms: C_27  and  C_28
REMARK   14  A    between atoms: C_32  and  C_34
REMARK   15  A    between atoms: C_34  and  C_35
REMARK   16  A    between atoms: C_34  and  N_46
REMARK   17  A    between atoms: C_35  and  C_36
REMARK   18  A    between atoms: C_47  and  C_49
REMARK   19  A    between atoms: C_49  and  C_50
REMARK   20  A    between atoms: C_49  and  N_58
REMARK   21  A    between atoms: C_50  and  C_51
REMARK   22  A    between atoms: C_59  and  CA_61
REMARK   23  A    between atoms: CA_61  and  C_62
REMARK   24  A    between atoms: CA_61  and  N_64
REMARK   25  A    between atoms: C_65  and  CA_67
REMARK   26  A    between atoms: CA_67  and  CB_68
REMARK   27  A    between atoms: CA_67  and  N_78
REMARK   28  A    between atoms: CB_68  and  CG_69
REMARK   29  A    between atoms: C_79  and  CA_81
REMARK   30  A    between atoms: CA_81  and  CB_82
REMARK   31  A    between atoms: CA_81  and  N_88
REMARK   32  A    between atoms: CB_82  and  CG_83
REMARK   33  A    between atoms: C_89  and  CA_91
REMARK                            x       y       z     vdW  Elec       q    Type
REMARK                         _______ _______ _______ _____ _____    ______ ____
ROOT
ATOM      1  N   UNL     1      47.068  79.634  41.472  0.00  0.00    -0.196 NA
ATOM      2  C   UNL     1      46.410  78.748  40.649  0.00  0.00    +0.262 C 
ATOM      3  O   UNL     1      46.884  77.634  40.400  0.00  0.00    -0.271 OA
ENDROOT
BRANCH   2   4
ATOM      4  C   UNL     1      45.050  79.153  40.025  0.00  0.00    +0.177 C 
BRANCH   4   5
ATOM      5  N   UNL     1      44.302  77.901  39.846  0.00  0.00    -0.196 NA
ATOM      6  C   UNL     1      42.929  77.872  39.720  0.00  0.00    +0.264 C 
ATOM      7  O   UNL     1      42.166  78.199  40.618  0.00  0.00    -0.271 OA
BRANCH   6   8
ATOM      8  CA  UNL     1      42.431  77.307  38.376  0.00  0.00    +0.205 C 
BRANCH   8   9
ATOM      9  N   UNL     1      40.960  77.395  38.341  0.00  0.00    -0.194 NA
ATOM     10  C   UNL     1      40.220  76.863  37.297  0.00  0.00    +0.262 C 
ATOM     11  O   UNL     1      40.743  76.375  36.302  0.00  0.00    -0.271 OA
BRANCH  10  12
ATOM     12  CA  UNL     1      38.693  77.047  37.470  0.00  0.00    +0.177 C 
BRANCH  12  13
ATOM     13  N   UNL     1      37.968  75.947  36.815  0.00  0.00    -0.196 NA
ATOM     14  C   UNL     1      37.607  74.812  37.512  0.00  0.00    +0.262 C 
ATOM     15  O   UNL     1      37.568  74.778  38.739  0.00  0.00    -0.271 OA
BRANCH  14  16
ATOM     16  CA  UNL     1      37.334  73.561  36.650  0.00  0.00    +0.179 C 
BRANCH  16  17
ATOM     17  N   UNL     1      35.923  73.145  36.634  0.00  0.00    -0.196 NA
ATOM     18  C   UNL     1      34.971  73.798  35.879  0.00  0.00    +0.262 C 
ATOM     19  O   UNL     1      35.256  74.653  35.050  0.00  0.00    -0.271 OA
BRANCH  18  20
ATOM     20  CA  UNL     1      33.550  73.249  36.060  0.00  0.00    +0.173 C 
ATOM     21  C   UNL     1      32.713  74.178  36.925  0.00  0.00    +0.041 C 
ATOM     22  C   UNL     1      31.291  74.015  36.397  0.00  0.00    +0.089 C 
ATOM     23  C   UNL     1      31.497  73.544  34.982  0.00  0.00    +0.242 C 
ATOM     24  O   UNL     1      30.637  73.448  34.123  0.00  0.00    -0.273 OA
ATOM     25  N   UNL     1      32.823  73.212  34.811  0.00  0.00    -0.198 NA
ENDBRANCH  18  20
ENDBRANCH  16  17
BRANCH  16  26
ATOM     26  CB  UNL     1      38.339  72.450  37.014  0.00  0.00    +0.079 C 
BRANCH  26  27
ATOM     27  CG  UNL     1      38.172  71.220  36.184  0.00  0.00    +0.082 A 
ATOM     28  CD2 UNL     1      37.324  70.902  35.144  0.00  0.00    +0.115 A 
ATOM     29  NE2 UNL     1      37.497  69.597  34.761  0.00  0.00    -0.221 NA
ATOM     30  CE1 UNL     1      38.467  69.138  35.513  0.00  0.00    +0.199 A 
ATOM     31  ND1 UNL     1      38.926  70.088  36.380  0.00  0.00    -0.227 NA
ENDBRANCH  26  27
ENDBRANCH  16  26
ENDBRANCH  14  16
ENDBRANCH  12  13
BRANCH  12  32
ATOM     32  CB  UNL     1      38.187  78.427  37.025  0.00  0.00    +0.059 C 
BRANCH  32  33
ATOM     33  CG  UNL     1      37.094  78.338  35.999  0.00  0.00    +0.001 A 
ATOM     34  CD1 UNL     1      37.262  78.310  34.626  0.00  0.00    +0.095 A 
ATOM     35  NE1 UNL     1      36.027  78.253  34.040  0.00  0.00    -0.244 NA
ATOM     36  CE2 UNL     1      35.044  78.234  35.001  0.00  0.00    +0.081 A 
ATOM     37  CZ2 UNL     1      33.652  78.187  34.866  0.00  0.00    +0.019 A 
ATOM     38  CH2 UNL     1      32.886  78.185  36.034  0.00  0.00    +0.002 A 
ATOM     39  CZ3 UNL     1      33.492  78.236  37.287  0.00  0.00    +0.000 A 
ATOM     40  CE3 UNL     1      34.884  78.292  37.404  0.00  0.00    +0.001 A 
ATOM     41  CD2 UNL     1      35.682  78.287  36.241  0.00  0.00    +0.015 A 
ENDBRANCH  32  33
ENDBRANCH  12  32
ENDBRANCH  10  12
ENDBRANCH   8   9
BRANCH   8  42
ATOM     42  C   UNL     1      43.149  78.090  37.258  0.00  0.00    +0.213 C 
ATOM     43  O   UNL     1      44.064  77.266  36.538  0.00  0.00    -0.218 OA
ENDBRANCH   8  42
ENDBRANCH   6   8
ENDBRANCH   4   5
BRANCH   4  44
ATOM     44  C   UNL     1      45.044  80.150  38.849  0.00  0.00    +0.057 C 
BRANCH  44  45
ATOM     45  C   UNL     1      45.894  81.395  38.940  0.00  0.00    -0.020 A 
ATOM     46  C   UNL     1      45.332  82.661  39.133  0.00  0.00    -0.001 A 
ATOM     47  C   UNL     1      46.146  83.788  39.262  0.00  0.00    +0.042 A 
ATOM     48  C   UNL     1      47.525  83.653  39.208  0.00  0.00    +0.196 A 
ATOM     49  C   UNL     1      48.111  82.406  39.041  0.00  0.00    +0.042 A 
ATOM     50  C   UNL     1      47.294  81.282  38.923  0.00  0.00    -0.001 A 
ATOM     51  O   UNL     1      48.283  84.784  39.298  0.00  0.00    -0.287 OA
ENDBRANCH  44  45
ENDBRANCH   4  44
ENDBRANCH   2   4
BRANCH   1  52
ATOM     52  C   UNL     1      47.077  79.374  42.920  0.00  0.00    +0.177 C 
BRANCH  52  54
ATOM     53  N   UNL     1      48.864  80.089  44.476  0.00  0.00    -0.196 NA
ATOM     54  C   UNL     1      47.852  80.505  43.644  0.00  0.00    +0.262 C 
ATOM     55  O   UNL     1      47.611  81.698  43.453  0.00  0.00    -0.271 OA
BRANCH  53  56
ATOM     56  C   UNL     1      49.751  81.035  45.173  0.00  0.00    +0.173 C 
BRANCH  56  57
ATOM     57  C   UNL     1      50.647  80.206  46.113  0.00  0.00    +0.262 C 
ATOM     58  O   UNL     1      51.383  79.320  45.676  0.00  0.00    -0.271 OA
ATOM     59  N   UNL     1      50.507  80.465  47.461  0.00  0.00    -0.196 NA
BRANCH  59  60
ATOM     60  C   UNL     1      51.284  79.748  48.465  0.00  0.00    +0.171 C 
BRANCH  60  61
ATOM     61  C   UNL     1      52.616  80.392  48.946  0.00  0.00    +0.246 C 
ATOM     62  O   UNL     1      52.607  81.580  49.308  0.00  0.00    -0.273 OA
ATOM     63  N   UNL     1      53.820  79.728  48.871  0.00  0.00    -0.272 N 
ATOM     64  C   UNL     1      54.228  78.631  48.010  0.00  0.00    +0.094 C 
ATOM     65  C   UNL     1      55.697  78.376  48.329  0.00  0.00    +0.024 C 
ATOM     66  C   UNL     1      55.884  78.982  49.715  0.00  0.00    +0.031 C 
ATOM     67  C   UNL     1      54.932  80.174  49.702  0.00  0.00    +0.154 C 
BRANCH  67  68
ATOM     68  C   UNL     1      55.629  81.410  49.075  0.00  0.00    +0.260 C 
ATOM     69  O   UNL     1      56.851  81.516  48.979  0.00  0.00    -0.272 OA
ATOM     70  N   UNL     1      54.767  82.413  48.691  0.00  0.00    -0.194 NA
BRANCH  70  71
ATOM     71  C   UNL     1      55.246  83.732  48.292  0.00  0.00    +0.203 C 
BRANCH  71  72
ATOM     72  C   UNL     1      54.108  84.672  47.891  0.00  0.00    +0.283 C 
ATOM     73  O   UNL     1      52.925  84.346  47.913  0.00  0.00    -0.270 OA
ATOM     74  N   UNL     1      54.480  85.914  47.454  0.00  0.00    -0.086 NA
ENDBRANCH  71  72
ENDBRANCH  70  71
ENDBRANCH  67  68
ENDBRANCH  60  61
BRANCH  60  75
ATOM     75  C   UNL     1      50.443  79.292  49.667  0.00  0.00    +0.033 C 
BRANCH  75  76
ATOM     76  C   UNL     1      51.159  78.473  50.746  0.00  0.00    +0.029 C 
BRANCH  76  77
ATOM     77  C   UNL     1      50.542  78.597  52.133  0.00  0.00    +0.129 C 
BRANCH  77  78
ATOM     78  N   UNL     1      49.206  77.997  52.162  0.00  0.00    -0.234 NA
ATOM     79  C   UNL     1      49.107  76.899  52.817  0.00  0.00    +0.284 C 
ATOM     80  N   UNL     1      50.078  76.165  53.402  0.00  0.00    -0.104 NA
ATOM     81  N   UNL     1      47.902  76.329  53.017  0.00  0.00    -0.104 NA
ENDBRANCH  77  78
ENDBRANCH  76  77
ENDBRANCH  75  76
ENDBRANCH  60  75
ENDBRANCH  59  60
ENDBRANCH  56  57
BRANCH  56  82
ATOM     82  C   UNL     1      50.570  81.760  44.077  0.00  0.00    +0.031 C 
BRANCH  82  84
ATOM     83  C   UNL     1      49.549  84.071  44.440  0.00  0.00    +0.000 C 
ATOM     84  C   UNL     1      49.983  83.020  43.420  0.00  0.00    +0.002 C 
ATOM     85  C   UNL     1      50.874  83.623  42.337  0.00  0.00    +0.000 C 
ENDBRANCH  82  84
ENDBRANCH  56  82
ENDBRANCH  53  56
ENDBRANCH  52  54
BRANCH  52  86
ATOM     86  C   UNL     1      45.675  79.120  43.490  0.00  0.00    +0.057 C 
BRANCH  86  87
ATOM     87  C   UNL     1      45.612  78.461  44.847  0.00  0.00    -0.020 A 
ATOM     88  C   UNL     1      45.283  77.100  44.952  0.00  0.00    -0.004 A 
ATOM     89  C   UNL     1      45.237  76.453  46.197  0.00  0.00    -0.000 A 
ATOM     90  C   UNL     1      44.900  75.094  46.307  0.00  0.00    -0.000 A 
ATOM     91  C   UNL     1      44.851  74.470  47.553  0.00  0.00    -0.000 A 
ATOM     92  C   UNL     1      45.155  75.189  48.704  0.00  0.00    -0.000 A 
ATOM     93  C   UNL     1      45.500  76.538  48.612  0.00  0.00    -0.000 A 
ATOM     94  C   UNL     1      45.540  77.187  47.366  0.00  0.00    -0.000 A 
ATOM     95  C   UNL     1      45.867  78.545  47.257  0.00  0.00    -0.000 A 
ATOM     96  C   UNL     1      45.906  79.177  46.011  0.00  0.00    -0.004 A 
ENDBRANCH  86  87
ENDBRANCH  52  86
ENDBRANCH   1  52
TORSDOF 33
