REMARK  Name = Nafcillin
REMARK  5 active torsions:
REMARK  status: ('A' for Active; 'I' for Inactive)
REMARK    1  A    between atoms: C_2  and  O_3
REMARK    2  A    between atoms: O_3  and  C_4
REMARK    3  A    between atoms: C_5  and  C_14
REMARK    4  A    between atoms: N_16  and  CA_17
REMARK    5  A    between atoms: CA_22  and  C_27
REMARK                            x       y       z     vdW  Elec       q    Type
REMARK                         _______ _______ _______ _____ _____    ______ ____
ROOT
ATOM      1  C   UNL     1      44.174  77.966  39.605  0.00  0.00    +0.268 C 
ATOM      2  O   UNL     1      45.191  77.191  39.452  0.00  0.00    -0.268 OA
ATOM      3  N   UNL     1      44.422  79.344  39.602  0.00  0.00    -0.191 NA
ENDROOT
BRANCH   1   5
ATOM      4  C   UNL     1      42.642  76.619  40.975  0.00  0.00    +0.143 A 
ATOM      5  C   UNL     1      42.908  77.277  39.751  0.00  0.00    +0.089 A 
ATOM      6  C   UNL     1      41.921  77.222  38.794  0.00  0.00    +0.007 A 
ATOM      7  C   UNL     1      42.084  77.873  37.586  0.00  0.00    +0.000 A 
ATOM      8  C   UNL     1      41.069  77.838  36.627  0.00  0.00    +0.000 A 
ATOM      9  C   UNL     1      39.897  77.162  36.865  0.00  0.00    +0.000 A 
ATOM     10  C   UNL     1      39.707  76.511  38.058  0.00  0.00    +0.000 A 
ATOM     11  C   UNL     1      40.707  76.548  38.998  0.00  0.00    +0.000 A 
ATOM     12  C   UNL     1      40.498  75.919  40.208  0.00  0.00    +0.003 A 
ATOM     13  C   UNL     1      41.472  75.967  41.179  0.00  0.00    +0.037 A 
BRANCH   4  14
ATOM     14  O   UNL     1      43.658  76.698  41.918  0.00  0.00    -0.475 OA
BRANCH  14  16
ATOM     15  C   UNL     1      45.246  75.945  43.605  0.00  0.00    +0.051 C 
ATOM     16  C   UNL     1      44.125  75.609  42.659  0.00  0.00    +0.206 C 
ENDBRANCH  14  16
ENDBRANCH   4  14
ENDBRANCH   1   5
BRANCH   3  17
ATOM     17  CA  UNL     1      45.779  79.870  39.568  0.00  0.00    +0.200 C 
ATOM     18  C   UNL     1      46.273  80.484  40.815  0.00  0.00    +0.153 C 
ATOM     19  N   UNL     1      46.960  81.420  39.897  0.00  0.00    -0.259 N 
ATOM     20  C   UNL     1      45.765  81.314  39.163  0.00  0.00    +0.249 C 
ATOM     21  O   UNL     1      45.068  82.104  38.501  0.00  0.00    -0.273 OA
ATOM     22  CA  UNL     1      48.249  81.801  40.269  0.00  0.00    +0.189 C 
ATOM     23  C   UNL     1      48.597  81.361  41.641  0.00  0.00    +0.068 C 
ATOM     24  S   UNL     1      47.693  79.751  41.663  0.00  0.00    -0.118 S 
ATOM     25  C   UNL     1      50.076  81.122  41.818  0.00  0.00    +0.013 C 
ATOM     26  C   UNL     1      48.002  82.199  42.731  0.00  0.00    +0.013 C 
BRANCH  22  27
ATOM     27  C   UNL     1      48.353  83.301  40.120  0.00  0.00    +0.383 C 
ATOM     28  O   UNL     1      47.376  84.066  40.293  0.00  0.00    -0.244 OA
ATOM     29  OXT UNL     1      49.563  83.877  39.778  0.00  0.00    -0.244 OA
ENDBRANCH  22  27
ENDBRANCH   3  17
TORSDOF 5
