REMARK  Name = Naftifine
REMARK  5 active torsions:
REMARK  status: ('A' for Active; 'I' for Inactive)
REMARK    1  A    between atoms: N_2  and  C_3
REMARK    2  A    between atoms: N_2  and  C_12
REMARK    3  A    between atoms: C_3  and  C_4
REMARK    4  A    between atoms: C_5  and  C_6
REMARK    5  A    between atoms: C_12  and  C_13
REMARK                            x       y       z     vdW  Elec       q    Type
REMARK                         _______ _______ _______ _____ _____    ______ ____
ROOT
ATOM      1  C   UNL     1      45.502  81.979  38.389  0.00  0.00    +0.090 C 
ATOM      2  N   UNL     1      45.945  80.901  39.176  0.00  0.00    -0.264 NA
ENDROOT
BRANCH   2   3
ATOM      3  C   UNL     1      47.347  81.067  39.577  0.00  0.00    +0.099 C 
BRANCH   3   4
ATOM      4  C   UNL     1      47.477  82.001  40.716  0.00  0.00    -0.009 C 
ATOM      5  C   UNL     1      48.608  82.106  41.373  0.00  0.00    -0.003 C 
BRANCH   5   6
ATOM      6  C   UNL     1      48.872  83.210  42.285  0.00  0.00    -0.000 A 
ATOM      7  C   UNL     1      47.834  84.060  42.670  0.00  0.00    -0.000 A 
ATOM      8  C   UNL     1      48.034  85.116  43.527  0.00  0.00    -0.000 A 
ATOM      9  C   UNL     1      49.291  85.373  44.045  0.00  0.00    -0.000 A 
ATOM     10  C   UNL     1      50.317  84.544  43.672  0.00  0.00    -0.000 A 
ATOM     11  C   UNL     1      50.105  83.481  42.806  0.00  0.00    -0.000 A 
ENDBRANCH   5   6
ENDBRANCH   3   4
ENDBRANCH   2   3
BRANCH   2  12
ATOM     12  C   UNL     1      45.797  79.566  38.685  0.00  0.00    +0.099 C 
BRANCH  12  13
ATOM     13  C   UNL     1      44.935  78.686  39.502  0.00  0.00    -0.006 A 
ATOM     14  C   UNL     1      45.420  78.115  40.667  0.00  0.00    -0.003 A 
ATOM     15  C   UNL     1      44.662  77.345  41.521  0.00  0.00    -0.000 A 
ATOM     16  C   UNL     1      43.349  77.123  41.209  0.00  0.00    -0.000 A 
ATOM     17  C   UNL     1      42.797  77.664  40.054  0.00  0.00    -0.000 A 
ATOM     18  C   UNL     1      41.464  77.412  39.738  0.00  0.00    -0.000 A 
ATOM     19  C   UNL     1      40.928  77.933  38.580  0.00  0.00    -0.000 A 
ATOM     20  C   UNL     1      41.725  78.695  37.751  0.00  0.00    -0.000 A 
ATOM     21  C   UNL     1      43.047  78.936  38.080  0.00  0.00    -0.000 A 
ATOM     22  C   UNL     1      43.592  78.428  39.227  0.00  0.00    -0.003 A 
ENDBRANCH  12  13
ENDBRANCH   2  12
TORSDOF 5
