REMARK  Name = NAFTOPIDIL
REMARK  7 active torsions:
REMARK  status: ('A' for Active; 'I' for Inactive)
REMARK    1  A    between atoms: O_2  and  C_3
REMARK    2  A    between atoms: C_8  and  N_9
REMARK    3  A    between atoms: N_12  and  C_15
REMARK    4  A    between atoms: C_15  and  C_16
REMARK    5  A    between atoms: C_16  and  C_17
REMARK    6  A    between atoms: C_17  and  O_18
REMARK    7  A    between atoms: O_18  and  C_19
REMARK                            x       y       z     vdW  Elec       q    Type
REMARK                         _______ _______ _______ _____ _____    ______ ____
ROOT
ATOM      1  C   UNL     1      45.482  80.953  40.192  0.00  0.00    +0.109 C 
ENDROOT
BRANCH   1   5
ATOM      2  N   UNL     1      48.637  82.597  41.950  0.00  0.00    -0.302 N 
ATOM      3  C   UNL     1      47.759  81.549  42.423  0.00  0.00    +0.108 C 
ATOM      4  C   UNL     1      47.516  80.560  41.275  0.00  0.00    +0.094 C 
ATOM      5  N   UNL     1      46.893  81.205  40.149  0.00  0.00    -0.268 NA
ATOM      6  C   UNL     1      47.208  82.616  40.062  0.00  0.00    +0.094 C 
ATOM      7  C   UNL     1      48.672  82.764  40.488  0.00  0.00    +0.108 C 
BRANCH   2  13
ATOM      8  C   UNL     1      50.812  83.342  42.789  0.00  0.00    +0.152 A 
ATOM      9  C   UNL     1      51.557  84.192  43.588  0.00  0.00    +0.038 A 
ATOM     10  C   UNL     1      50.941  85.149  44.353  0.00  0.00    +0.003 A 
ATOM     11  C   UNL     1      49.564  85.268  44.329  0.00  0.00    +0.001 A 
ATOM     12  C   UNL     1      48.853  84.413  43.529  0.00  0.00    +0.018 A 
ATOM     13  C   UNL     1      49.430  83.435  42.742  0.00  0.00    +0.082 A 
BRANCH   8  15
ATOM     14  C   UNL     1      52.014  81.253  42.618  0.00  0.00    +0.253 C 
ATOM     15  O   UNL     1      51.392  82.368  42.006  0.00  0.00    -0.470 OA
ENDBRANCH   8  15
ENDBRANCH   2  13
ENDBRANCH   1   5
BRANCH   1  16
ATOM     16  C   UNL     1      44.844  80.835  38.853  0.00  0.00    +0.211 C 
ATOM     17  O   UNL     1      45.619  81.483  37.863  0.00  0.00    -0.218 OA
BRANCH  16  18
ATOM     18  C   UNL     1      44.561  79.410  38.395  0.00  0.00    +0.239 C 
BRANCH  18  19
ATOM     19  O   UNL     1      43.448  78.826  38.711  0.00  0.00    -0.473 OA
BRANCH  19  20
ATOM     20  C   UNL     1      42.470  77.920  38.603  0.00  0.00    +0.139 A 
ATOM     21  C   UNL     1      41.453  77.955  37.685  0.00  0.00    +0.037 A 
ATOM     22  C   UNL     1      40.482  77.013  37.621  0.00  0.00    +0.003 A 
ATOM     23  C   UNL     1      40.492  75.960  38.507  0.00  0.00    +0.000 A 
ATOM     24  C   UNL     1      41.507  75.900  39.445  0.00  0.00    +0.003 A 
ATOM     25  C   UNL     1      41.506  74.833  40.330  0.00  0.00    +0.000 A 
ATOM     26  C   UNL     1      42.512  74.765  41.264  0.00  0.00    +0.000 A 
ATOM     27  C   UNL     1      43.501  75.723  41.330  0.00  0.00    +0.000 A 
ATOM     28  C   UNL     1      43.511  76.782  40.459  0.00  0.00    +0.003 A 
ATOM     29  C   UNL     1      42.481  76.840  39.513  0.00  0.00    +0.034 A 
ENDBRANCH  19  20
ENDBRANCH  18  19
ENDBRANCH  16  18
ENDBRANCH   1  16
TORSDOF 7
