REMARK  Name = Nalbuphine
REMARK  2 active torsions:
REMARK  status: ('A' for Active; 'I' for Inactive)
REMARK    1  A    between atoms: C_3  and  C_5
REMARK    2  A    between atoms: C_5  and  N_6
REMARK                            x       y       z     vdW  Elec       q    Type
REMARK                         _______ _______ _______ _____ _____    ______ ____
ROOT
ATOM      1  N   UNL     1      48.563  81.892  42.223  0.00  0.00    -0.271 NA
ATOM      2  C   UNL     1      47.213  81.995  42.785  0.00  0.00    +0.073 C 
ATOM      3  C   UNL     1      46.103  81.782  41.864  0.00  0.00    +0.027 C 
ATOM      4  C   UNL     1      46.370  81.058  40.606  0.00  0.00    +0.089 C 
ATOM      5  C   UNL     1      45.345  81.398  39.568  0.00  0.00    +0.202 C 
ATOM      6  C   UNL     1      45.868  81.669  38.228  0.00  0.00    +0.192 C 
ATOM      7  C   UNL     1      47.273  82.077  38.054  0.00  0.00    +0.039 C 
ATOM      8  C   UNL     1      48.007  82.317  39.384  0.00  0.00    +0.035 C 
ATOM      9  C   UNL     1      47.812  81.076  40.146  0.00  0.00    +0.147 C 
ATOM     10  C   UNL     1      48.679  80.796  41.336  0.00  0.00    +0.090 C 
ATOM     11  C   UNL     1      48.301  79.470  41.962  0.00  0.00    +0.045 C 
ATOM     12  C   UNL     1      47.047  78.871  41.462  0.00  0.00    -0.021 A 
ATOM     13  C   UNL     1      46.148  79.617  40.782  0.00  0.00    +0.016 A 
ATOM     14  C   UNL     1      44.989  79.208  40.211  0.00  0.00    +0.173 A 
ATOM     15  C   UNL     1      44.680  77.873  40.341  0.00  0.00    +0.229 A 
ATOM     16  C   UNL     1      45.550  77.012  41.034  0.00  0.00    +0.045 A 
ATOM     17  C   UNL     1      46.727  77.507  41.592  0.00  0.00    -0.001 A 
ATOM     18  O   UNL     1      43.526  77.336  39.805  0.00  0.00    -0.283 OA
ATOM     19  O   UNL     1      44.381  80.296  39.603  0.00  0.00    -0.473 OA
ATOM     20  O   UNL     1      47.992  79.999  39.254  0.00  0.00    -0.224 OA
ATOM     21  O   UNL     1      45.065  82.605  37.520  0.00  0.00    -0.219 OA
ENDROOT
BRANCH   1  22
ATOM     22  C   UNL     1      49.433  81.944  43.352  0.00  0.00    +0.072 C 
BRANCH  22  25
ATOM     23  C   UNL     1      50.625  85.071  43.856  0.00  0.00    +0.000 C 
ATOM     24  C   UNL     1      49.281  84.470  43.345  0.00  0.00    +0.001 C 
ATOM     25  C   UNL     1      49.664  83.225  44.049  0.00  0.00    +0.016 C 
ATOM     26  C   UNL     1      51.137  83.639  44.006  0.00  0.00    +0.001 C 
ENDBRANCH  22  25
ENDBRANCH   1  22
TORSDOF 2
