REMARK  Name = Naldemedine_Tosylate
REMARK  7 active torsions:
REMARK  status: ('A' for Active; 'I' for Inactive)
REMARK    1  A    between atoms: C_5  and  S_8
REMARK    2  A    between atoms: C_13  and  C_15
REMARK    3  A    between atoms: C_13  and  N_26
REMARK    4  A    between atoms: C_17  and  C_20
REMARK    5  A    between atoms: C_27  and  C_29
REMARK    6  A    between atoms: N_35  and  C_49
REMARK    7  A    between atoms: C_49  and  C_50
REMARK                            x       y       z     vdW  Elec       q    Type
REMARK                         _______ _______ _______ _____ _____    ______ ____
ROOT
ATOM      1  C   UNL     1      47.231  78.979  41.470  0.00  0.00    +0.031 C 
ATOM      2  C   UNL     1      45.976  78.508  40.802  0.00  0.00    -0.022 A 
ATOM      3  C   UNL     1      46.060  77.654  39.724  0.00  0.00    -0.003 A 
ATOM      4  C   UNL     1      44.928  77.195  39.079  0.00  0.00    +0.021 A 
ATOM      5  C   UNL     1      43.666  77.576  39.489  0.00  0.00    +0.136 A 
ATOM      6  C   UNL     1      43.604  78.433  40.573  0.00  0.00    +0.021 A 
ATOM      7  C   UNL     1      44.723  78.892  41.218  0.00  0.00    -0.003 A 
ENDROOT
BRANCH   5   8
ATOM      8  S   UNL     1      42.208  77.010  38.689  0.00  0.00    +0.141 S 
ATOM      9  O   UNL     1      42.280  75.532  38.426  0.00  0.00    -0.140 OA
ATOM     10  O   UNL     1      40.978  77.336  39.504  0.00  0.00    -0.140 OA
ATOM     11  O   UNL     1      42.081  77.797  37.230  0.00  0.00    -0.043 OA
ENDBRANCH   5   8
TORSDOF 1
REMARK  Name = Naldemedine_Tosylate
REMARK  7 active torsions:
REMARK  status: ('A' for Active; 'I' for Inactive)
REMARK    1  A    between atoms: C_5  and  S_8
REMARK    2  A    between atoms: C_13  and  C_15
REMARK    3  A    between atoms: C_13  and  N_26
REMARK    4  A    between atoms: C_17  and  C_20
REMARK    5  A    between atoms: C_27  and  C_29
REMARK    6  A    between atoms: N_35  and  C_49
REMARK    7  A    between atoms: C_49  and  C_50
REMARK                            x       y       z     vdW  Elec       q    Type
REMARK                         _______ _______ _______ _____ _____    ______ ____
ROOT
ATOM      1  C   UNL     1      44.304  78.073  40.770  0.00  0.00    +0.074 C 
ATOM      2  C   UNL     1      43.926  79.058  41.518  0.00  0.00    +0.214 C 
ATOM      3  C   UNL     1      44.712  80.255  41.914  0.00  0.00    +0.232 C 
ATOM      4  C   UNL     1      46.151  80.130  41.590  0.00  0.00    +0.094 C 
ATOM      5  C   UNL     1      47.093  80.721  42.568  0.00  0.00    +0.028 C 
ATOM      6  C   UNL     1      48.228  79.821  42.986  0.00  0.00    +0.073 C 
ATOM      7  N   UNL     1      48.880  79.130  41.937  0.00  0.00    -0.271 NA
ATOM      8  C   UNL     1      48.022  78.813  40.801  0.00  0.00    +0.091 C 
ATOM      9  C   UNL     1      46.603  78.720  41.238  0.00  0.00    +0.152 C 
ATOM     10  C   UNL     1      45.713  78.131  40.198  0.00  0.00    +0.066 C 
ATOM     11  O   UNL     1      46.516  77.936  42.381  0.00  0.00    -0.223 OA
ATOM     12  C   UNL     1      48.341  79.769  39.704  0.00  0.00    +0.045 C 
ATOM     13  C   UNL     1      47.217  80.697  39.413  0.00  0.00    -0.021 A 
ATOM     14  C   UNL     1      46.182  80.852  40.274  0.00  0.00    +0.017 A 
ATOM     15  C   UNL     1      45.081  81.618  40.141  0.00  0.00    +0.174 A 
ATOM     16  C   UNL     1      45.001  82.352  38.962  0.00  0.00    +0.229 A 
ATOM     17  C   UNL     1      46.012  82.263  38.021  0.00  0.00    +0.045 A 
ATOM     18  C   UNL     1      47.120  81.443  38.230  0.00  0.00    -0.001 A 
ATOM     19  O   UNL     1      43.907  83.171  38.736  0.00  0.00    -0.283 OA
ATOM     20  O   UNL     1      44.264  81.459  41.285  0.00  0.00    -0.468 OA
ATOM     21  O   UNL     1      42.623  79.061  42.055  0.00  0.00    -0.288 OA
ENDROOT
BRANCH   1  23
ATOM     22  N   UNL     1      42.161  76.639  40.795  0.00  0.00    -0.196 NA
ATOM     23  C   UNL     1      43.487  76.915  40.411  0.00  0.00    +0.264 C 
ATOM     24  O   UNL     1      44.037  76.033  39.649  0.00  0.00    -0.269 OA
BRANCH  22  26
ATOM     25  C   UNL     1      42.148  74.169  40.757  0.00  0.00    +0.031 C 
ATOM     26  C   UNL     1      41.466  75.430  40.343  0.00  0.00    +0.150 C 
ATOM     27  C   UNL     1      40.100  75.429  41.014  0.00  0.00    +0.031 C 
BRANCH  26  28
ATOM     28  C   UNL     1      41.244  75.474  38.882  0.00  0.00    +0.254 A 
ATOM     29  N   UNL     1      40.152  75.019  38.252  0.00  0.00    -0.189 NA
ATOM     30  C   UNL     1      40.289  75.221  36.939  0.00  0.00    +0.203 A 
ATOM     31  N   UNL     1      41.505  75.817  36.780  0.00  0.00    -0.056 NA
ATOM     32  O   UNL     1      42.034  75.946  37.959  0.00  0.00    -0.335 OA
BRANCH  30  33
ATOM     33  C   UNL     1      39.348  74.889  35.876  0.00  0.00    +0.039 A 
ATOM     34  C   UNL     1      38.127  74.365  36.219  0.00  0.00    +0.003 A 
ATOM     35  C   UNL     1      37.211  74.039  35.243  0.00  0.00    +0.000 A 
ATOM     36  C   UNL     1      37.477  74.223  33.896  0.00  0.00    +0.000 A 
ATOM     37  C   UNL     1      38.707  74.750  33.564  0.00  0.00    +0.000 A 
ATOM     38  C   UNL     1      39.635  75.081  34.546  0.00  0.00    +0.003 A 
ENDBRANCH  30  33
ENDBRANCH  26  28
ENDBRANCH  22  26
ENDBRANCH   1  23
BRANCH   7  39
ATOM     39  C   UNL     1      49.512  77.936  42.391  0.00  0.00    +0.072 C 
BRANCH  39  40
ATOM     40  C   UNL     1      50.819  78.074  43.080  0.00  0.00    +0.016 C 
ATOM     41  C   UNL     1      52.138  77.842  42.508  0.00  0.00    +0.001 C 
ATOM     42  C   UNL     1      51.685  79.285  42.676  0.00  0.00    +0.001 C 
ENDBRANCH  39  40
ENDBRANCH   7  39
TORSDOF 6
