REMARK  Name = Nalfurafine_hcl
REMARK  5 active torsions:
REMARK  status: ('A' for Active; 'I' for Inactive)
REMARK    1  A    between atoms: N_2  and  C_3
REMARK    2  A    between atoms: N_21  and  C_22
REMARK    3  A    between atoms: C_22  and  C_23
REMARK    4  A    between atoms: C_27  and  C_29
REMARK    5  A    between atoms: C_30  and  C_31
REMARK                            x       y       z     vdW  Elec       q    Type
REMARK                         _______ _______ _______ _____ _____    ______ ____
ROOT
ATOM      1  C   UNL     1      45.472  78.754  39.495  0.00  0.00    +0.116 C 
ATOM      2  C   UNL     1      46.473  77.714  39.912  0.00  0.00    +0.026 C 
ATOM      3  C   UNL     1      47.775  78.466  40.221  0.00  0.00    +0.034 C 
ATOM      4  C   UNL     1      47.495  79.305  41.427  0.00  0.00    +0.147 C 
ATOM      5  C   UNL     1      48.662  80.153  41.867  0.00  0.00    +0.090 C 
ATOM      6  C   UNL     1      49.063  81.221  40.900  0.00  0.00    +0.045 C 
ATOM      7  C   UNL     1      47.962  81.704  40.061  0.00  0.00    -0.021 A 
ATOM      8  C   UNL     1      46.711  81.225  40.249  0.00  0.00    +0.016 A 
ATOM      9  C   UNL     1      46.334  80.226  41.269  0.00  0.00    +0.088 C 
ATOM     10  C   UNL     1      45.097  79.638  40.676  0.00  0.00    +0.190 C 
ATOM     11  O   UNL     1      44.537  80.832  40.079  0.00  0.00    -0.474 OA
ATOM     12  C   UNL     1      45.599  81.570  39.553  0.00  0.00    +0.173 A 
ATOM     13  C   UNL     1      45.765  82.514  38.547  0.00  0.00    +0.229 A 
ATOM     14  C   UNL     1      47.034  83.050  38.302  0.00  0.00    +0.045 A 
ATOM     15  C   UNL     1      48.116  82.643  39.057  0.00  0.00    -0.001 A 
ATOM     16  O   UNL     1      44.651  82.895  37.813  0.00  0.00    -0.283 OA
ATOM     17  C   UNL     1      46.029  80.857  42.603  0.00  0.00    +0.027 C 
ATOM     18  C   UNL     1      47.198  81.396  43.327  0.00  0.00    +0.073 C 
ATOM     19  N   UNL     1      48.420  80.709  43.160  0.00  0.00    -0.271 NA
ATOM     20  O   UNL     1      47.209  78.436  42.486  0.00  0.00    -0.224 OA
ENDROOT
BRANCH   1  22
ATOM     21  C   UNL     1      43.946  78.522  37.525  0.00  0.00    +0.115 C 
ATOM     22  N   UNL     1      44.287  78.172  38.900  0.00  0.00    -0.272 N 
ATOM     23  C   UNL     1      43.472  77.282  39.634  0.00  0.00    +0.249 C 
ATOM     24  O   UNL     1      43.776  76.990  40.814  0.00  0.00    -0.270 OA
BRANCH  23  25
ATOM     25  C   UNL     1      42.289  76.702  39.041  0.00  0.00    +0.058 C 
ATOM     26  C   UNL     1      41.496  75.857  39.705  0.00  0.00    +0.008 C 
BRANCH  26  27
ATOM     27  C   UNL     1      40.314  75.293  39.074  0.00  0.00    +0.041 A 
ATOM     28  C   UNL     1      39.836  75.506  37.792  0.00  0.00    +0.180 A 
ATOM     29  O   UNL     1      38.731  74.797  37.626  0.00  0.00    -0.447 OA
ATOM     30  C   UNL     1      38.449  74.131  38.713  0.00  0.00    +0.180 A 
ATOM     31  C   UNL     1      39.420  74.416  39.646  0.00  0.00    +0.044 A 
ENDBRANCH  26  27
ENDBRANCH  23  25
ENDBRANCH   1  22
BRANCH  19  32
ATOM     32  C   UNL     1      49.535  81.248  43.847  0.00  0.00    +0.072 C 
BRANCH  32  33
ATOM     33  C   UNL     1      50.802  80.467  43.628  0.00  0.00    +0.016 C 
ATOM     34  C   UNL     1      52.068  80.977  44.335  0.00  0.00    +0.001 C 
ATOM     35  C   UNL     1      51.932  81.180  42.890  0.00  0.00    +0.001 C 
ENDBRANCH  32  33
ENDBRANCH  19  32
TORSDOF 5
REMARK  Name = Nalfurafine_hcl
REMARK  5 active torsions:
REMARK  status: ('A' for Active; 'I' for Inactive)
REMARK    1  A    between atoms: N_2  and  C_3
REMARK    2  A    between atoms: N_21  and  C_22
REMARK    3  A    between atoms: C_22  and  C_23
REMARK    4  A    between atoms: C_27  and  C_29
REMARK    5  A    between atoms: C_30  and  C_31
REMARK                            x       y       z     vdW  Elec       q    Type
REMARK                         _______ _______ _______ _____ _____    ______ ____
ROOT
ATOM      1 CL   UNL     1      45.483  79.172  40.388  0.00  0.00    +0.000 Cl
ENDROOT
TORSDOF 0
