REMARK  Name = Nalidixic_Acid
REMARK  2 active torsions:
REMARK  status: ('A' for Active; 'I' for Inactive)
REMARK    1  A    between atoms: C_2  and  N_3
REMARK    2  A    between atoms: C_5  and  C_15
REMARK                            x       y       z     vdW  Elec       q    Type
REMARK                         _______ _______ _______ _____ _____    ______ ____
ROOT
ATOM      1  N   UNL     1      44.788  78.018  41.053  0.00  0.00    -0.311 N 
ATOM      2  C   UNL     1      45.758  78.908  41.309  0.00  0.00    +0.087 A 
ATOM      3  C   UNL     1      45.943  80.064  40.560  0.00  0.00    +0.136 A 
ATOM      4  C   UNL     1      45.078  80.289  39.509  0.00  0.00    +0.206 A 
ATOM      5  O   UNL     1      45.197  81.325  38.792  0.00  0.00    -0.286 OA
ATOM      6  C   UNL     1      44.091  79.396  39.239  0.00  0.00    +0.073 A 
ATOM      7  C   UNL     1      43.966  78.264  40.029  0.00  0.00    +0.146 A 
ATOM      8  N   UNL     1      42.993  77.394  39.755  0.00  0.00    -0.232 NA
ATOM      9  C   UNL     1      42.130  77.565  38.750  0.00  0.00    +0.061 A 
ATOM     10  C   UNL     1      42.195  78.668  37.923  0.00  0.00    +0.015 A 
ATOM     11  C   UNL     1      43.194  79.585  38.185  0.00  0.00    +0.007 A 
ATOM     12  C   UNL     1      41.093  76.546  38.531  0.00  0.00    +0.052 C 
ENDROOT
BRANCH   3  13
ATOM     13  C   UNL     1      47.011  81.003  40.873  0.00  0.00    +0.392 C 
ATOM     14  O   UNL     1      47.210  81.982  40.117  0.00  0.00    -0.240 OA
ATOM     15  O   UNL     1      47.826  80.864  41.980  0.00  0.00    -0.240 OA
ENDBRANCH   3  13
BRANCH   1  17
ATOM     16  C   UNL     1      43.830  77.124  43.109  0.00  0.00    +0.027 C 
ATOM     17  C   UNL     1      44.599  76.815  41.836  0.00  0.00    +0.108 C 
ENDBRANCH   1  17
TORSDOF 2
