REMARK  Name = Nalmefene
REMARK  2 active torsions:
REMARK  status: ('A' for Active; 'I' for Inactive)
REMARK    1  A    between atoms: N_20  and  C_21
REMARK    2  A    between atoms: C_21  and  C_22
REMARK                            x       y       z     vdW  Elec       q    Type
REMARK                         _______ _______ _______ _____ _____    ______ ____
ROOT
ATOM      1  C   UNL     1      48.465  84.073  43.173  0.00  0.00    -0.006 C 
ATOM      2  C   UNL     1      48.540  83.074  42.323  0.00  0.00    -0.005 C 
ATOM      3  C   UNL     1      49.754  82.152  42.449  0.00  0.00    +0.028 C 
ATOM      4  C   UNL     1      49.584  80.929  41.521  0.00  0.00    +0.037 C 
ATOM      5  C   UNL     1      48.267  80.362  41.814  0.00  0.00    +0.147 C 
ATOM      6  C   UNL     1      47.815  79.052  41.320  0.00  0.00    +0.090 C 
ATOM      7  C   UNL     1      47.364  78.895  39.896  0.00  0.00    +0.045 C 
ATOM      8  C   UNL     1      46.612  80.040  39.386  0.00  0.00    -0.021 A 
ATOM      9  C   UNL     1      46.652  81.172  40.102  0.00  0.00    +0.017 A 
ATOM     10  C   UNL     1      47.191  81.288  41.478  0.00  0.00    +0.090 C 
ATOM     11  C   UNL     1      47.692  82.689  41.290  0.00  0.00    +0.190 C 
ATOM     12  O   UNL     1      46.468  83.274  40.899  0.00  0.00    -0.472 OA
ATOM     13  C   UNL     1      46.116  82.405  39.821  0.00  0.00    +0.173 A 
ATOM     14  C   UNL     1      45.427  82.456  38.620  0.00  0.00    +0.229 A 
ATOM     15  C   UNL     1      45.325  81.319  37.802  0.00  0.00    +0.045 A 
ATOM     16  C   UNL     1      45.919  80.123  38.191  0.00  0.00    -0.001 A 
ATOM     17  O   UNL     1      44.858  83.673  38.284  0.00  0.00    -0.283 OA
ATOM     18  C   UNL     1      46.053  81.087  42.367  0.00  0.00    +0.028 C 
ATOM     19  C   UNL     1      45.841  79.630  42.619  0.00  0.00    +0.073 C 
ATOM     20  N   UNL     1      46.738  78.696  42.229  0.00  0.00    -0.271 NA
ATOM     21  O   UNL     1      48.284  80.210  43.247  0.00  0.00    -0.224 OA
ENDROOT
BRANCH  20  22
ATOM     22  C   UNL     1      46.982  77.537  42.980  0.00  0.00    +0.072 C 
BRANCH  22  23
ATOM     23  C   UNL     1      46.560  76.217  42.461  0.00  0.00    +0.016 C 
ATOM     24  C   UNL     1      45.188  75.677  42.822  0.00  0.00    +0.001 C 
ATOM     25  C   UNL     1      45.557  76.035  41.389  0.00  0.00    +0.001 C 
ENDBRANCH  22  23
ENDBRANCH  20  22
TORSDOF 2
