REMARK  Name = Naloxegol
REMARK  24 active torsions:
REMARK  status: ('A' for Active; 'I' for Inactive)
REMARK    1  A    between atoms: O_2  and  C_3
REMARK    2  A    between atoms: C_3  and  C_4
REMARK    3  A    between atoms: C_4  and  O_5
REMARK    4  A    between atoms: O_5  and  C_6
REMARK    5  A    between atoms: C_6  and  C_7
REMARK    6  A    between atoms: C_7  and  O_8
REMARK    7  A    between atoms: O_8  and  C_9
REMARK    8  A    between atoms: C_9  and  C_10
REMARK    9  A    between atoms: C_10  and  O_11
REMARK   10  A    between atoms: O_11  and  C_12
REMARK   11  A    between atoms: C_12  and  C_13
REMARK   12  A    between atoms: C_13  and  O_14
REMARK   13  A    between atoms: O_14  and  C_15
REMARK   14  A    between atoms: C_15  and  C_16
REMARK   15  A    between atoms: C_16  and  O_17
REMARK   16  A    between atoms: O_17  and  C_18
REMARK   17  A    between atoms: C_18  and  C_19
REMARK   18  A    between atoms: C_19  and  O_20
REMARK   19  A    between atoms: O_20  and  C_21
REMARK   20  A    between atoms: C_21  and  C_22
REMARK   21  A    between atoms: C_22  and  O_23
REMARK   22  A    between atoms: O_23  and  C_24
REMARK   23  A    between atoms: N_42  and  C_43
REMARK   24  A    between atoms: C_43  and  C_44
REMARK                            x       y       z     vdW  Elec       q    Type
REMARK                         _______ _______ _______ _____ _____    ______ ____
ROOT
ATOM      1  O   UNL     1      45.082  77.334  40.391  0.00  0.00    -0.350 OA
ENDROOT
BRANCH   1   2
ATOM      2  C   UNL     1      46.220  78.165  40.514  0.00  0.00    +0.156 C 
ATOM      3  C   UNL     1      47.079  77.564  41.625  0.00  0.00    +0.036 C 
ATOM      4  C   UNL     1      48.283  78.399  41.926  0.00  0.00    +0.035 C 
ATOM      5  C   UNL     1      48.254  79.741  41.320  0.00  0.00    +0.147 C 
ATOM      6  C   UNL     1      49.198  80.771  41.878  0.00  0.00    +0.091 C 
ATOM      7  C   UNL     1      49.066  82.126  41.233  0.00  0.00    +0.045 C 
ATOM      8  C   UNL     1      47.940  82.257  40.273  0.00  0.00    -0.021 A 
ATOM      9  C   UNL     1      46.924  81.388  40.373  0.00  0.00    +0.016 A 
ATOM     10  C   UNL     1      46.869  80.385  41.437  0.00  0.00    +0.089 C 
ATOM     11  C   UNL     1      45.742  79.489  40.959  0.00  0.00    +0.199 C 
ATOM     12  O   UNL     1      45.028  80.263  39.980  0.00  0.00    -0.473 OA
ATOM     13  C   UNL     1      45.861  81.312  39.560  0.00  0.00    +0.173 A 
ATOM     14  C   UNL     1      45.794  82.234  38.506  0.00  0.00    +0.229 A 
ATOM     15  C   UNL     1      46.812  83.160  38.353  0.00  0.00    +0.045 A 
ATOM     16  C   UNL     1      47.907  83.195  39.229  0.00  0.00    -0.001 A 
ATOM     17  O   UNL     1      44.749  82.254  37.610  0.00  0.00    -0.283 OA
ATOM     18  C   UNL     1      46.544  80.875  42.796  0.00  0.00    +0.027 C 
ATOM     19  C   UNL     1      47.668  81.275  43.676  0.00  0.00    +0.073 C 
ATOM     20  N   UNL     1      48.956  80.812  43.296  0.00  0.00    -0.268 NA
ATOM     21  O   UNL     1      48.541  79.677  39.933  0.00  0.00    -0.224 OA
BRANCH  20  22
ATOM     22  C   UNL     1      50.008  81.312  44.101  0.00  0.00    +0.099 C 
BRANCH  22  23
ATOM     23  C   UNL     1      49.776  82.598  44.766  0.00  0.00    -0.009 C 
ATOM     24  C   UNL     1      50.626  83.599  44.631  0.00  0.00    -0.003 C 
ENDBRANCH  22  23
ENDBRANCH  20  22
ENDBRANCH   1   2
BRANCH   1  25
ATOM     25  C   UNL     1      43.989  77.784  41.065  0.00  0.00    +0.174 C 
BRANCH  25  26
ATOM     26  C   UNL     1      42.652  77.411  40.536  0.00  0.00    +0.174 C 
BRANCH  26  27
ATOM     27  O   UNL     1      42.160  78.233  39.545  0.00  0.00    -0.348 OA
BRANCH  27  28
ATOM     28  C   UNL     1      42.391  77.799  38.270  0.00  0.00    +0.174 C 
BRANCH  28  29
ATOM     29  C   UNL     1      41.226  77.947  37.344  0.00  0.00    +0.174 C 
BRANCH  29  30
ATOM     30  O   UNL     1      40.740  76.718  36.957  0.00  0.00    -0.348 OA
BRANCH  30  31
ATOM     31  C   UNL     1      39.646  76.744  36.140  0.00  0.00    +0.174 C 
BRANCH  31  32
ATOM     32  C   UNL     1      39.250  75.399  35.595  0.00  0.00    +0.174 C 
BRANCH  32  33
ATOM     33  O   UNL     1      38.184  75.474  34.706  0.00  0.00    -0.348 OA
BRANCH  33  34
ATOM     34  C   UNL     1      38.394  74.861  33.519  0.00  0.00    +0.174 C 
BRANCH  34  35
ATOM     35  C   UNL     1      38.903  73.463  33.510  0.00  0.00    +0.174 C 
BRANCH  35  36
ATOM     36  O   UNL     1      39.161  72.792  32.438  0.00  0.00    -0.348 OA
BRANCH  36  37
ATOM     37  C   UNL     1      38.801  72.614  31.227  0.00  0.00    +0.174 C 
BRANCH  37  38
ATOM     38  C   UNL     1      37.361  72.302  30.956  0.00  0.00    +0.174 C 
BRANCH  38  39
ATOM     39  O   UNL     1      36.916  72.061  29.753  0.00  0.00    -0.348 OA
BRANCH  39  40
ATOM     40  C   UNL     1      36.905  70.986  28.992  0.00  0.00    +0.174 C 
BRANCH  40  41
ATOM     41  C   UNL     1      35.662  70.759  28.208  0.00  0.00    +0.174 C 
BRANCH  41  42
ATOM     42  O   UNL     1      35.864  70.672  26.826  0.00  0.00    -0.348 OA
BRANCH  42  43
ATOM     43  C   UNL     1      35.468  69.510  26.243  0.00  0.00    +0.174 C 
BRANCH  43  44
ATOM     44  C   UNL     1      34.124  69.692  25.589  0.00  0.00    +0.174 C 
BRANCH  44  46
ATOM     45  C   UNL     1      31.852  69.111  25.740  0.00  0.00    +0.174 C 
ATOM     46  O   UNL     1      33.096  69.170  26.299  0.00  0.00    -0.348 OA
ENDBRANCH  44  46
ENDBRANCH  43  44
ENDBRANCH  42  43
ENDBRANCH  41  42
ENDBRANCH  40  41
ENDBRANCH  39  40
ENDBRANCH  38  39
ENDBRANCH  37  38
ENDBRANCH  36  37
ENDBRANCH  35  36
ENDBRANCH  34  35
ENDBRANCH  33  34
ENDBRANCH  32  33
ENDBRANCH  31  32
ENDBRANCH  30  31
ENDBRANCH  29  30
ENDBRANCH  28  29
ENDBRANCH  27  28
ENDBRANCH  26  27
ENDBRANCH  25  26
ENDBRANCH   1  25
TORSDOF 24
