REMARK  Name = Naloxone
REMARK  2 active torsions:
REMARK  status: ('A' for Active; 'I' for Inactive)
REMARK    1  A    between atoms: C_2  and  C_3
REMARK    2  A    between atoms: C_3  and  N_4
REMARK                            x       y       z     vdW  Elec       q    Type
REMARK                         _______ _______ _______ _____ _____    ______ ____
ROOT
ATOM      1  N   UNL     1      49.043  81.612  43.117  0.00  0.00    -0.268 NA
ATOM      2  C   UNL     1      47.766  82.203  43.339  0.00  0.00    +0.073 C 
ATOM      3  C   UNL     1      46.590  81.509  42.798  0.00  0.00    +0.028 C 
ATOM      4  C   UNL     1      46.794  80.508  41.731  0.00  0.00    +0.094 C 
ATOM      5  C   UNL     1      45.606  79.599  41.569  0.00  0.00    +0.228 C 
ATOM      6  C   UNL     1      45.936  78.339  40.883  0.00  0.00    +0.191 C 
ATOM      7  O   UNL     1      45.129  77.874  40.098  0.00  0.00    -0.292 OA
ATOM      8  C   UNL     1      47.250  77.671  41.171  0.00  0.00    +0.071 C 
ATOM      9  C   UNL     1      48.328  78.706  40.927  0.00  0.00    +0.040 C 
ATOM     10  C   UNL     1      48.109  79.815  41.917  0.00  0.00    +0.148 C 
ATOM     11  C   UNL     1      49.174  80.891  41.882  0.00  0.00    +0.091 C 
ATOM     12  C   UNL     1      49.182  81.749  40.670  0.00  0.00    +0.045 C 
ATOM     13  C   UNL     1      47.939  81.751  39.888  0.00  0.00    -0.021 A 
ATOM     14  C   UNL     1      46.837  81.151  40.403  0.00  0.00    +0.017 A 
ATOM     15  C   UNL     1      45.633  81.065  39.784  0.00  0.00    +0.173 A 
ATOM     16  C   UNL     1      45.542  81.640  38.531  0.00  0.00    +0.229 A 
ATOM     17  C   UNL     1      46.651  82.272  37.954  0.00  0.00    +0.045 A 
ATOM     18  C   UNL     1      47.864  82.323  38.650  0.00  0.00    -0.001 A 
ATOM     19  O   UNL     1      44.323  81.569  37.870  0.00  0.00    -0.283 OA
ATOM     20  O   UNL     1      44.792  80.373  40.658  0.00  0.00    -0.468 OA
ATOM     21  O   UNL     1      48.133  79.263  43.197  0.00  0.00    -0.224 OA
ENDROOT
BRANCH   1  22
ATOM     22  C   UNL     1      50.084  82.546  43.382  0.00  0.00    +0.099 C 
BRANCH  22  24
ATOM     23  C   UNL     1      49.542  84.909  43.862  0.00  0.00    -0.003 C 
ATOM     24  C   UNL     1      49.670  83.657  44.281  0.00  0.00    -0.009 C 
ENDBRANCH  22  24
ENDBRANCH   1  22
TORSDOF 2
