REMARK  Name = Naltrexone
REMARK  2 active torsions:
REMARK  status: ('A' for Active; 'I' for Inactive)
REMARK    1  A    between atoms: C_3  and  C_4
REMARK    2  A    between atoms: C_4  and  N_5
REMARK                            x       y       z     vdW  Elec       q    Type
REMARK                         _______ _______ _______ _____ _____    ______ ____
ROOT
ATOM      1  N   UNL     1      48.839  81.772  42.687  0.00  0.00    -0.271 NA
ATOM      2  C   UNL     1      47.652  82.502  42.919  0.00  0.00    +0.073 C 
ATOM      3  C   UNL     1      46.408  81.929  42.313  0.00  0.00    +0.028 C 
ATOM      4  C   UNL     1      46.571  81.419  40.928  0.00  0.00    +0.094 C 
ATOM      5  C   UNL     1      45.458  81.816  40.000  0.00  0.00    +0.228 C 
ATOM      6  C   UNL     1      45.849  81.857  38.591  0.00  0.00    +0.191 C 
ATOM      7  O   UNL     1      44.971  81.936  37.746  0.00  0.00    -0.292 OA
ATOM      8  C   UNL     1      47.254  81.807  38.105  0.00  0.00    +0.071 C 
ATOM      9  C   UNL     1      48.139  81.039  39.081  0.00  0.00    +0.040 C 
ATOM     10  C   UNL     1      47.952  81.644  40.436  0.00  0.00    +0.148 C 
ATOM     11  C   UNL     1      48.887  81.021  41.463  0.00  0.00    +0.090 C 
ATOM     12  C   UNL     1      48.655  79.573  41.715  0.00  0.00    +0.045 C 
ATOM     13  C   UNL     1      47.337  79.065  41.322  0.00  0.00    -0.021 A 
ATOM     14  C   UNL     1      46.374  79.942  40.949  0.00  0.00    +0.017 A 
ATOM     15  C   UNL     1      45.114  79.617  40.553  0.00  0.00    +0.173 A 
ATOM     16  C   UNL     1      44.809  78.266  40.538  0.00  0.00    +0.229 A 
ATOM     17  C   UNL     1      45.764  77.317  40.914  0.00  0.00    +0.045 A 
ATOM     18  C   UNL     1      47.044  77.726  41.310  0.00  0.00    -0.001 A 
ATOM     19  O   UNL     1      43.538  77.884  40.143  0.00  0.00    -0.283 OA
ATOM     20  O   UNL     1      44.452  80.807  40.257  0.00  0.00    -0.468 OA
ATOM     21  O   UNL     1      48.286  82.993  40.356  0.00  0.00    -0.224 OA
ENDROOT
BRANCH   1  22
ATOM     22  C   UNL     1      49.971  82.671  42.779  0.00  0.00    +0.072 C 
BRANCH  22  25
ATOM     23  C   UNL     1      49.235  84.361  44.595  0.00  0.00    +0.001 C 
ATOM     24  C   UNL     1      50.467  84.900  43.945  0.00  0.00    +0.001 C 
ATOM     25  C   UNL     1      49.538  84.080  43.124  0.00  0.00    +0.016 C 
ENDBRANCH  22  25
ENDBRANCH   1  22
TORSDOF 2
