REMARK  Name = Nandrolone
REMARK  0 active torsions:
REMARK  status: ('A' for Active; 'I' for Inactive)
REMARK                            x       y       z     vdW  Elec       q    Type
REMARK                         _______ _______ _______ _____ _____    ______ ____
ROOT
ATOM      1  C   UNL     1      50.331  80.848  44.184  0.00  0.00    +0.003 C 
ATOM      2  C   UNL     1      50.659  82.134  43.507  0.00  0.00    +0.028 C 
ATOM      3  C   UNL     1      51.070  81.958  42.062  0.00  0.00    +0.002 C 
ATOM      4  C   UNL     1      49.887  81.541  41.204  0.00  0.00    +0.000 C 
ATOM      5  C   UNL     1      48.763  82.541  41.278  0.00  0.00    +0.004 C 
ATOM      6  C   UNL     1      48.381  82.691  42.730  0.00  0.00    +0.001 C 
ATOM      7  C   UNL     1      49.526  83.139  43.553  0.00  0.00    +0.002 C 
ATOM      8  C   UNL     1      50.183  84.397  43.124  0.00  0.00    +0.003 C 
ATOM      9  C   UNL     1      51.502  84.352  43.908  0.00  0.00    +0.033 C 
ATOM     10  C   UNL     1      51.770  82.902  44.192  0.00  0.00    +0.152 C 
ATOM     11  O   UNL     1      53.022  82.490  43.736  0.00  0.00    -0.223 OA
ATOM     12  C   UNL     1      47.177  83.545  42.949  0.00  0.00    +0.004 C 
ATOM     13  C   UNL     1      46.472  83.933  41.692  0.00  0.00    +0.022 C 
ATOM     14  C   UNL     1      46.383  82.751  40.804  0.00  0.00    -0.042 C 
ATOM     15  C   UNL     1      45.242  82.288  40.342  0.00  0.00    +0.029 C 
ATOM     16  C   UNL     1      45.250  81.118  39.472  0.00  0.00    +0.173 C 
ATOM     17  O   UNL     1      44.238  80.842  38.793  0.00  0.00    -0.291 OA
ATOM     18  C   UNL     1      46.424  80.224  39.352  0.00  0.00    +0.069 C 
ATOM     19  C   UNL     1      47.486  80.571  40.398  0.00  0.00    +0.012 C 
ATOM     20  C   UNL     1      47.634  82.064  40.421  0.00  0.00    +0.019 C 
ENDROOT
TORSDOF 0
