REMARK  Name = Naproxen
REMARK  3 active torsions:
REMARK  status: ('A' for Active; 'I' for Inactive)
REMARK    1  A    between atoms: C_2  and  C_3
REMARK    2  A    between atoms: C_2  and  C_15
REMARK    3  A    between atoms: C_10  and  O_13
REMARK                            x       y       z     vdW  Elec       q    Type
REMARK                         _______ _______ _______ _____ _____    ______ ____
ROOT
ATOM      1  C   UNL     1      49.236  82.610  42.032  0.00  0.00    -0.012 A 
ATOM      2  C   UNL     1      48.572  83.056  40.916  0.00  0.00    -0.004 A 
ATOM      3  C   UNL     1      47.549  82.294  40.384  0.00  0.00    -0.000 A 
ATOM      4  C   UNL     1      47.183  81.106  40.943  0.00  0.00    +0.003 A 
ATOM      5  C   UNL     1      47.859  80.673  42.062  0.00  0.00    -0.000 A 
ATOM      6  C   UNL     1      48.876  81.406  42.611  0.00  0.00    -0.004 A 
ATOM      7  C   UNL     1      46.149  80.365  40.382  0.00  0.00    +0.037 A 
ATOM      8  C   UNL     1      45.496  80.817  39.275  0.00  0.00    +0.139 A 
ATOM      9  C   UNL     1      45.864  82.023  38.703  0.00  0.00    +0.037 A 
ATOM     10  C   UNL     1      46.887  82.768  39.249  0.00  0.00    +0.003 A 
ENDROOT
BRANCH   1  12
ATOM     11  C   UNL     1      49.743  84.170  43.794  0.00  0.00    +0.017 C 
ATOM     12  C   UNL     1      50.331  83.399  42.624  0.00  0.00    +0.126 C 
BRANCH  12  13
ATOM     13  C   UNL     1      51.435  82.517  43.054  0.00  0.00    +0.368 C 
ATOM     14  O   UNL     1      52.141  81.964  42.183  0.00  0.00    -0.245 OA
ATOM     15  O   UNL     1      51.715  82.284  44.381  0.00  0.00    -0.245 OA
ENDBRANCH  12  13
ENDBRANCH   1  12
BRANCH   8  16
ATOM     16  O   UNL     1      44.473  80.099  38.707  0.00  0.00    -0.471 OA
ATOM     17  C   UNL     1      44.014  78.888  39.261  0.00  0.00    +0.252 C 
ENDBRANCH   8  16
TORSDOF 3
