REMARK  Name = Naratriptan
REMARK  5 active torsions:
REMARK  status: ('A' for Active; 'I' for Inactive)
REMARK    1  A    between atoms: N_2  and  S_3
REMARK    2  A    between atoms: S_3  and  C_6
REMARK    3  A    between atoms: C_6  and  C_7
REMARK    4  A    between atoms: C_7  and  C_8
REMARK    5  A    between atoms: C_16  and  C_17
REMARK                            x       y       z     vdW  Elec       q    Type
REMARK                         _______ _______ _______ _____ _____    ______ ____
ROOT
ATOM      1  C   UNL     1      47.884  81.700  40.674  0.00  0.00    -0.020 A 
ATOM      2  C   UNL     1      47.199  80.478  40.598  0.00  0.00    -0.003 A 
ATOM      3  C   UNL     1      45.980  80.365  39.967  0.00  0.00    +0.015 A 
ATOM      4  C   UNL     1      45.429  81.490  39.398  0.00  0.00    +0.081 A 
ATOM      5  C   UNL     1      46.105  82.716  39.468  0.00  0.00    +0.019 A 
ATOM      6  C   UNL     1      47.325  82.815  40.103  0.00  0.00    -0.003 A 
ATOM      7  N   UNL     1      44.260  81.119  38.856  0.00  0.00    -0.244 NA
ATOM      8  C   UNL     1      44.023  79.808  39.043  0.00  0.00    +0.095 A 
ATOM      9  C   UNL     1      45.087  79.313  39.738  0.00  0.00    -0.002 A 
ENDROOT
BRANCH   9  10
ATOM     10  C   UNL     1      45.303  77.917  40.186  0.00  0.00    +0.027 C 
ATOM     11  C   UNL     1      44.728  77.739  41.551  0.00  0.00    +0.022 C 
ATOM     12  C   UNL     1      43.359  77.166  41.613  0.00  0.00    +0.072 C 
ATOM     13  N   UNL     1      42.645  77.197  40.382  0.00  0.00    -0.271 NA
ATOM     14  C   UNL     1      43.347  76.643  39.271  0.00  0.00    +0.072 C 
ATOM     15  C   UNL     1      44.805  76.877  39.244  0.00  0.00    +0.022 C 
ATOM     16  C   UNL     1      41.353  76.571  40.593  0.00  0.00    +0.090 C 
ENDBRANCH   9  10
BRANCH   1  17
ATOM     17  C   UNL     1      49.203  81.784  41.345  0.00  0.00    +0.053 C 
BRANCH  17  18
ATOM     18  C   UNL     1      49.181  82.213  42.755  0.00  0.00    +0.175 C 
BRANCH  18  19
ATOM     19  S   UNL     1      50.645  82.808  43.474  0.00  0.00    +0.058 S 
ATOM     20  O   UNL     1      51.086  81.945  44.654  0.00  0.00    -0.156 OA
ATOM     21  O   UNL     1      51.800  82.665  42.480  0.00  0.00    -0.156 OA
BRANCH  19  23
ATOM     22  C   UNL     1      49.298  84.927  44.043  0.00  0.00    +0.136 C 
ATOM     23  N   UNL     1      50.649  84.425  43.975  0.00  0.00    -0.080 NA
ENDBRANCH  19  23
ENDBRANCH  18  19
ENDBRANCH  17  18
ENDBRANCH   1  17
TORSDOF 5
