REMARK  Name = Nartograstim
REMARK  22 active torsions:
REMARK  status: ('A' for Active; 'I' for Inactive)
REMARK    1  A    between atoms: CB_2  and  CA_3
REMARK    2  A    between atoms: CA_3  and  C_4
REMARK    3  A    between atoms: CA_3  and  N_36
REMARK    4  A    between atoms: N_6  and  CA_7
REMARK    5  A    between atoms: CA_7  and  CB_8
REMARK    6  A    between atoms: CA_7  and  C_16
REMARK    7  A    between atoms: CB_8  and  CG_9
REMARK    8  A    between atoms: N_18  and  CA_19
REMARK    9  A    between atoms: CA_19  and  CB_20
REMARK   10  A    between atoms: CA_19  and  C_27
REMARK   11  A    between atoms: CB_20  and  CG_21
REMARK   12  A    between atoms: CG_21  and  CD_22
REMARK   13  A    between atoms: CD_22  and  NE_23
REMARK   14  A    between atoms: N_29  and  CA_30
REMARK   15  A    between atoms: CA_30  and  CB_31
REMARK   16  A    between atoms: CA_30  and  C_33
REMARK   17  A    between atoms: C_37  and  CA_39
REMARK   18  A    between atoms: CA_39  and  N_41
REMARK   19  A    between atoms: C_42  and  CA_44
REMARK   20  A    between atoms: CA_44  and  CB_45
REMARK   21  A    between atoms: CB_45  and  CG_46
REMARK   22  A    between atoms: CG_46  and  SD_47
REMARK                            x       y       z     vdW  Elec       q    Type
REMARK                         _______ _______ _______ _____ _____    ______ ____
ROOT
ATOM      1  CA  TYR A   4      48.199  80.923  43.701  0.00  0.00    +0.177 C 
ENDROOT
BRANCH   1   4
ATOM      2  C   THR A   3      46.677  79.768  42.141  0.00  0.00    +0.264 C 
ATOM      3  O   THR A   3      46.847  80.678  41.300  0.00  0.00    -0.271 OA
ATOM      4  N   TYR A   4      47.368  79.785  43.410  0.00  0.00    -0.196 NA
BRANCH   2   5
ATOM      5  CA  THR A   3      45.755  78.662  41.820  0.00  0.00    +0.203 C 
BRANCH   5   7
ATOM      6  CG2 THR A   3      47.033  77.446  43.563  0.00  0.00    +0.038 C 
ATOM      7  CB  THR A   3      46.388  77.313  42.204  0.00  0.00    +0.181 C 
ATOM      8  OG1 THR A   3      45.440  76.300  42.191  0.00  0.00    -0.221 OA
ENDBRANCH   5   7
BRANCH   5   9
ATOM      9  N   THR A   3      45.538  78.595  40.396  0.00  0.00    -0.194 NA
ATOM     10  C   ALA A   2      44.216  78.797  39.913  0.00  0.00    +0.262 C 
ATOM     11  O   ALA A   2      43.280  79.115  40.728  0.00  0.00    -0.271 OA
BRANCH  10  12
ATOM     12  CA  ALA A   2      43.840  78.660  38.516  0.00  0.00    +0.173 C 
ATOM     13  CB  ALA A   2      44.299  79.977  37.837  0.00  0.00    +0.033 C 
BRANCH  12  14
ATOM     14  N   ALA A   2      42.432  78.461  38.250  0.00  0.00    -0.197 NA
ATOM     15  C   MET A   1      41.844  77.168  38.352  0.00  0.00    +0.259 C 
ATOM     16  O   MET A   1      42.536  76.267  38.846  0.00  0.00    -0.272 OA
BRANCH  15  17
ATOM     17  CA  MET A   1      40.481  76.873  37.896  0.00  0.00    +0.170 C 
ATOM     18  N   MET A   1      39.698  76.244  38.923  0.00  0.00    -0.123 NA
BRANCH  17  19
ATOM     19  CB  MET A   1      40.453  76.124  36.615  0.00  0.00    +0.040 C 
BRANCH  19  20
ATOM     20  CG  MET A   1      39.039  75.922  36.096  0.00  0.00    +0.060 C 
BRANCH  20  21
ATOM     21  SD  MET A   1      38.630  77.178  34.855  0.00  0.00    -0.139 S 
ATOM     22  CE  MET A   1      36.967  76.777  34.181  0.00  0.00    +0.069 C 
ENDBRANCH  20  21
ENDBRANCH  19  20
ENDBRANCH  17  19
ENDBRANCH  15  17
ENDBRANCH  12  14
ENDBRANCH  10  12
ENDBRANCH   5   9
ENDBRANCH   2   5
ENDBRANCH   1   4
BRANCH   1  23
ATOM     23  C   TYR A   4      48.673  80.958  45.086  0.00  0.00    +0.262 C 
ATOM     24  O   TYR A   4      47.927  81.437  45.971  0.00  0.00    -0.271 OA
ATOM     25  N   ARG A   5      49.937  80.481  45.499  0.00  0.00    -0.196 NA
BRANCH  25  26
ATOM     26  CA  ARG A   5      50.348  80.182  46.847  0.00  0.00    +0.173 C 
BRANCH  26  27
ATOM     27  C   ARG A   5      51.793  80.366  46.962  0.00  0.00    +0.262 C 
ATOM     28  O   ARG A   5      52.350  81.278  46.306  0.00  0.00    -0.271 OA
ATOM     29  N   SER A   6      52.625  79.563  47.792  0.00  0.00    -0.191 NA
BRANCH  29  30
ATOM     30  CA  SER A   6      54.055  79.768  47.964  0.00  0.00    +0.230 C 
BRANCH  30  31
ATOM     31  C   SER A   6      54.725  78.606  48.550  0.00  0.00    +0.387 C 
ATOM     32  O   SER A   6      54.048  77.814  49.236  0.00  0.00    -0.244 OA
ATOM     33  OXT SER A   6      56.066  78.374  48.361  0.00  0.00    -0.244 OA
ENDBRANCH  30  31
BRANCH  30  34
ATOM     34  CB  SER A   6      54.140  80.885  49.034  0.00  0.00    +0.215 C 
ATOM     35  OG  SER A   6      54.866  81.954  48.539  0.00  0.00    -0.218 OA
ENDBRANCH  30  34
ENDBRANCH  29  30
ENDBRANCH  26  27
BRANCH  26  36
ATOM     36  CB  ARG A   5      49.559  80.995  47.844  0.00  0.00    +0.033 C 
BRANCH  36  37
ATOM     37  CG  ARG A   5      49.944  80.728  49.257  0.00  0.00    +0.029 C 
BRANCH  37  38
ATOM     38  CD  ARG A   5      49.109  81.434  50.297  0.00  0.00    +0.129 C 
BRANCH  38  39
ATOM     39  NE  ARG A   5      48.499  80.540  51.259  0.00  0.00    -0.234 NA
ATOM     40  CZ  ARG A   5      47.909  81.039  52.297  0.00  0.00    +0.284 C 
ATOM     41  NH1 ARG A   5      47.949  82.438  52.588  0.00  0.00    -0.104 NA
ATOM     42  NH2 ARG A   5      47.189  80.235  53.220  0.00  0.00    -0.104 NA
ENDBRANCH  38  39
ENDBRANCH  37  38
ENDBRANCH  36  37
ENDBRANCH  26  36
ENDBRANCH  25  26
ENDBRANCH   1  23
BRANCH   1  43
ATOM     43  CB  TYR A   4      49.428  80.789  42.782  0.00  0.00    +0.057 C 
BRANCH  43  44
ATOM     44  CG  TYR A   4      50.315  81.945  42.795  0.00  0.00    -0.020 A 
ATOM     45  CD1 TYR A   4      49.753  83.202  42.634  0.00  0.00    -0.001 A 
ATOM     46  CE1 TYR A   4      50.508  84.346  42.633  0.00  0.00    +0.042 A 
ATOM     47  CZ  TYR A   4      51.891  84.245  42.801  0.00  0.00    +0.196 A 
ATOM     48  CE2 TYR A   4      52.450  83.001  42.960  0.00  0.00    +0.042 A 
ATOM     49  CD2 TYR A   4      51.681  81.866  42.959  0.00  0.00    -0.001 A 
ATOM     50  OH  TYR A   4      52.629  85.413  42.796  0.00  0.00    -0.287 OA
ENDBRANCH  43  44
ENDBRANCH   1  43
TORSDOF 22
