REMARK  Name = Natamycin
REMARK  3 active torsions:
REMARK  status: ('A' for Active; 'I' for Inactive)
REMARK    1  A    between atoms: C_12  and  O_37
REMARK    2  A    between atoms: C_15  and  C_34
REMARK    3  A    between atoms: O_37  and  C_38
REMARK                            x       y       z     vdW  Elec       q    Type
REMARK                         _______ _______ _______ _____ _____    ______ ____
ROOT
ATOM      1  C   UNL     1      46.633  73.175  45.398  0.00  0.00    +0.048 C 
ATOM      2  C   UNL     1      47.341  73.791  44.207  0.00  0.00    +0.174 C 
ATOM      3  C   UNL     1      48.586  74.459  44.733  0.00  0.00    +0.070 C 
ATOM      4  C   UNL     1      49.406  75.018  43.640  0.00  0.00    -0.022 C 
ATOM      5  C   UNL     1      49.852  76.227  43.513  0.00  0.00    -0.004 C 
ATOM      6  C   UNL     1      49.677  77.372  44.396  0.00  0.00    -0.000 C 
ATOM      7  C   UNL     1      48.539  77.984  44.692  0.00  0.00    -0.000 C 
ATOM      8  C   UNL     1      47.223  77.636  44.190  0.00  0.00    -0.000 C 
ATOM      9  C   UNL     1      46.844  77.398  42.949  0.00  0.00    -0.000 C 
ATOM     10  C   UNL     1      47.670  77.431  41.753  0.00  0.00    -0.002 C 
ATOM     11  C   UNL     1      48.094  78.463  41.064  0.00  0.00    +0.003 C 
ATOM     12  C   UNL     1      47.842  79.901  41.312  0.00  0.00    +0.142 C 
ATOM     13  C   UNL     1      47.310  80.505  40.009  0.00  0.00    +0.064 C 
ATOM     14  C   UNL     1      45.854  80.208  39.775  0.00  0.00    +0.134 C 
ATOM     15  C   UNL     1      45.011  81.467  39.760  0.00  0.00    +0.161 C 
ATOM     16  C   UNL     1      43.600  81.091  39.460  0.00  0.00    +0.170 C 
ATOM     17  C   UNL     1      43.459  79.627  39.111  0.00  0.00    +0.093 C 
ATOM     18  C   UNL     1      44.182  78.733  40.072  0.00  0.00    +0.224 C 
ATOM     19  O   UNL     1      45.300  79.318  40.659  0.00  0.00    -0.334 OA
ATOM     20  C   UNL     1      44.580  77.418  39.478  0.00  0.00    +0.092 C 
ATOM     21  C   UNL     1      44.079  76.244  40.275  0.00  0.00    +0.159 C 
ATOM     22  C   UNL     1      45.003  75.072  39.995  0.00  0.00    +0.065 C 
ATOM     23  C   UNL     1      44.411  73.798  40.566  0.00  0.00    +0.149 C 
ATOM     24  C   UNL     1      45.360  72.964  41.162  0.00  0.00    +0.164 C 
ATOM     25  O   UNL     1      44.769  72.623  39.834  0.00  0.00    -0.349 OA
ATOM     26  C   UNL     1      44.927  71.941  42.138  0.00  0.00    +0.012 C 
ATOM     27  C   UNL     1      45.729  71.325  42.991  0.00  0.00    +0.080 C 
ATOM     28  C   UNL     1      47.176  71.584  43.079  0.00  0.00    +0.341 C 
ATOM     29  O   UNL     1      47.964  70.570  43.016  0.00  0.00    -0.245 OA
ATOM     30  O   UNL     1      47.703  72.865  43.224  0.00  0.00    -0.449 OA
ATOM     31  O   UNL     1      42.800  75.868  39.828  0.00  0.00    -0.223 OA
ATOM     32  O   UNL     1      43.283  78.447  41.122  0.00  0.00    -0.195 OA
ATOM     33  O   UNL     1      43.090  81.802  38.349  0.00  0.00    -0.222 OA
ENDROOT
BRANCH  15  34
ATOM     34  C   UNL     1      45.462  82.415  38.716  0.00  0.00    +0.369 C 
ATOM     35  O   UNL     1      46.572  83.004  38.800  0.00  0.00    -0.245 OA
ATOM     36  O   UNL     1      44.660  82.671  37.614  0.00  0.00    -0.245 OA
ENDBRANCH  15  34
BRANCH  12  37
ATOM     37  O   UNL     1      48.836  80.616  41.862  0.00  0.00    -0.327 OA
BRANCH  37  38
ATOM     38  C   UNL     1      49.154  81.858  41.509  0.00  0.00    +0.268 C 
ATOM     39  C   UNL     1      50.642  82.093  41.253  0.00  0.00    +0.228 C 
ATOM     40  C   UNL     1      51.447  81.888  42.516  0.00  0.00    +0.160 C 
ATOM     41  C   UNL     1      50.908  82.846  43.556  0.00  0.00    +0.199 C 
ATOM     42  C   UNL     1      49.432  82.523  43.726  0.00  0.00    +0.150 C 
ATOM     43  O   UNL     1      48.809  82.745  42.513  0.00  0.00    -0.328 OA
ATOM     44  C   UNL     1      48.832  83.466  44.752  0.00  0.00    +0.035 C 
ATOM     45  O   UNL     1      50.972  84.145  43.014  0.00  0.00    -0.219 OA
ATOM     46  N   UNL     1      51.406  80.531  42.989  0.00  0.00    -0.127 NA
ATOM     47  O   UNL     1      51.139  81.393  40.182  0.00  0.00    -0.216 OA
ENDBRANCH  37  38
ENDBRANCH  12  37
TORSDOF 3
