REMARK  Name = Nebivolol
REMARK  6 active torsions:
REMARK  status: ('A' for Active; 'I' for Inactive)
REMARK    1  A    between atoms: C_11  and  C_12
REMARK    2  A    between atoms: C_12  and  C_13
REMARK    3  A    between atoms: C_13  and  N_14
REMARK    4  A    between atoms: N_14  and  C_15
REMARK    5  A    between atoms: C_15  and  C_16
REMARK    6  A    between atoms: C_16  and  C_17
REMARK                            x       y       z     vdW  Elec       q    Type
REMARK                         _______ _______ _______ _____ _____    ______ ____
ROOT
ATOM      1  N   UNL     1      44.389  80.403  38.987  0.00  0.00    -0.212 NA
ENDROOT
BRANCH   1   2
ATOM      2  C   UNL     1      44.865  81.401  39.947  0.00  0.00    +0.125 C 
BRANCH   2   3
ATOM      3  C   UNL     1      46.114  82.046  39.480  0.00  0.00    +0.209 C 
ATOM      4  O   UNL     1      46.495  81.595  38.195  0.00  0.00    -0.218 OA
BRANCH   3  15
ATOM      5  C   UNL     1      48.593  82.347  39.676  0.00  0.00    +0.051 C 
ATOM      6  C   UNL     1      49.729  82.338  40.670  0.00  0.00    +0.033 C 
ATOM      7  C   UNL     1      49.411  83.159  41.845  0.00  0.00    +0.014 A 
ATOM      8  C   UNL     1      48.107  83.388  42.179  0.00  0.00    +0.135 A 
ATOM      9  C   UNL     1      47.850  84.163  43.304  0.00  0.00    +0.039 A 
ATOM     10  C   UNL     1      48.848  84.701  44.080  0.00  0.00    +0.033 A 
ATOM     11  C   UNL     1      50.174  84.466  43.735  0.00  0.00    +0.140 A 
ATOM     12  C   UNL     1      50.419  83.697  42.622  0.00  0.00    +0.028 A 
ATOM     13  F   UNL     1      51.164  84.995  44.498  0.00  0.00    -0.204 F 
ATOM     14  O   UNL     1      47.116  82.856  41.409  0.00  0.00    -0.477 OA
ATOM     15  C   UNL     1      47.326  81.885  40.364  0.00  0.00    +0.198 C 
ENDBRANCH   3  15
ENDBRANCH   2   3
ENDBRANCH   1   2
BRANCH   1  16
ATOM     16  C   UNL     1      43.860  79.231  39.614  0.00  0.00    +0.125 C 
BRANCH  16  17
ATOM     17  C   UNL     1      43.364  78.192  38.673  0.00  0.00    +0.209 C 
ATOM     18  O   UNL     1      44.091  77.000  38.745  0.00  0.00    -0.218 OA
BRANCH  17  19
ATOM     19  C   UNL     1      41.901  77.879  38.695  0.00  0.00    +0.198 C 
ATOM     20  C   UNL     1      41.436  77.909  37.242  0.00  0.00    +0.051 C 
ATOM     21  C   UNL     1      40.136  77.292  36.951  0.00  0.00    +0.033 C 
ATOM     22  C   UNL     1      39.569  76.468  38.037  0.00  0.00    +0.014 A 
ATOM     23  C   UNL     1      40.300  76.162  39.169  0.00  0.00    +0.135 A 
ATOM     24  O   UNL     1      41.604  76.653  39.296  0.00  0.00    -0.477 OA
ATOM     25  C   UNL     1      39.697  75.377  40.127  0.00  0.00    +0.039 A 
ATOM     26  C   UNL     1      38.411  74.900  39.989  0.00  0.00    +0.033 A 
ATOM     27  C   UNL     1      37.667  75.198  38.862  0.00  0.00    +0.140 A 
ATOM     28  C   UNL     1      38.278  75.978  37.919  0.00  0.00    +0.028 A 
ATOM     29  F   UNL     1      36.396  74.737  38.715  0.00  0.00    -0.204 F 
ENDBRANCH  17  19
ENDBRANCH  16  17
ENDBRANCH   1  16
TORSDOF 6
