REMARK  Name = Nefopam
REMARK  1 active torsions:
REMARK  status: ('A' for Active; 'I' for Inactive)
REMARK    1  A    between atoms: C_6  and  C_14
REMARK                            x       y       z     vdW  Elec       q    Type
REMARK                         _______ _______ _______ _____ _____    ______ ____
ROOT
ATOM      1  C   UNL     1      45.165  77.119  40.661  0.00  0.00    +0.090 C 
ATOM      2  N   UNL     1      45.847  78.348  40.937  0.00  0.00    -0.266 NA
ATOM      3  C   UNL     1      46.227  78.389  42.329  0.00  0.00    +0.105 C 
ATOM      4  C   UNL     1      46.543  79.806  42.782  0.00  0.00    +0.160 C 
ATOM      5  O   UNL     1      47.803  80.090  42.415  0.00  0.00    -0.346 OA
ATOM      6  C   UNL     1      48.049  81.044  41.458  0.00  0.00    +0.159 C 
ATOM      7  C   UNL     1      46.982  81.263  40.496  0.00  0.00    +0.006 A 
ATOM      8  C   UNL     1      47.346  82.388  39.808  0.00  0.00    -0.002 A 
ATOM      9  C   UNL     1      46.546  82.912  38.777  0.00  0.00    -0.000 A 
ATOM     10  C   UNL     1      45.370  82.300  38.433  0.00  0.00    -0.000 A 
ATOM     11  C   UNL     1      45.029  81.171  39.140  0.00  0.00    -0.003 A 
ATOM     12  C   UNL     1      45.803  80.651  40.148  0.00  0.00    -0.008 A 
ATOM     13  C   UNL     1      45.003  79.466  40.565  0.00  0.00    +0.099 C 
ENDROOT
BRANCH   6  14
ATOM     14  C   UNL     1      48.491  82.269  42.172  0.00  0.00    +0.009 A 
ATOM     15  C   UNL     1      49.821  82.519  42.453  0.00  0.00    -0.002 A 
ATOM     16  C   UNL     1      50.233  83.648  43.107  0.00  0.00    -0.000 A 
ATOM     17  C   UNL     1      49.317  84.588  43.514  0.00  0.00    -0.000 A 
ATOM     18  C   UNL     1      47.995  84.376  43.255  0.00  0.00    -0.000 A 
ATOM     19  C   UNL     1      47.584  83.219  42.586  0.00  0.00    -0.002 A 
ENDBRANCH   6  14
TORSDOF 1
