REMARK  Name = Nelarabine
REMARK  3 active torsions:
REMARK  status: ('A' for Active; 'I' for Inactive)
REMARK    1  A    between atoms: O_2  and  C_3
REMARK    2  A    between atoms: N_11  and  C1*_12
REMARK    3  A    between atoms: C4*_15  and  C5*_17
REMARK                            x       y       z     vdW  Elec       q    Type
REMARK                         _______ _______ _______ _____ _____    ______ ____
ROOT
ATOM      1  C   UNL     1      45.239  80.290  39.581  0.00  0.00    +0.249 A 
ATOM      2  N   UNL     1      45.288  81.251  38.643  0.00  0.00    -0.175 NA
ATOM      3  C   UNL     1      46.213  82.251  38.684  0.00  0.00    +0.261 A 
ATOM      4  N   UNL     1      47.077  82.228  39.713  0.00  0.00    -0.192 NA
ATOM      5  C   UNL     1      47.069  81.289  40.675  0.00  0.00    +0.172 A 
ATOM      6  C   UNL     1      46.126  80.278  40.624  0.00  0.00    +0.170 A 
ATOM      7  N   UNL     1      46.339  79.490  41.686  0.00  0.00    -0.217 NA
ATOM      8  C   UNL     1      47.374  79.961  42.403  0.00  0.00    +0.182 A 
ATOM      9  N   UNL     1      47.823  81.067  41.780  0.00  0.00    -0.269 N 
ATOM     10  N   UNL     1      46.234  83.248  37.678  0.00  0.00    -0.086 NA
ENDROOT
BRANCH   9  11
ATOM     11  C1* UNL     1      48.923  81.932  42.165  0.00  0.00    +0.241 C 
ATOM     12  C2* UNL     1      50.203  81.138  42.205  0.00  0.00    +0.234 C 
ATOM     13  C3* UNL     1      50.921  81.753  43.382  0.00  0.00    +0.216 C 
ATOM     14  C4* UNL     1      49.870  82.510  44.107  0.00  0.00    +0.183 C 
ATOM     15  O4* UNL     1      48.674  82.377  43.448  0.00  0.00    -0.331 OA
ATOM     16  O3* UNL     1      51.923  82.610  42.897  0.00  0.00    -0.218 OA
ATOM     17  O2* UNL     1      50.934  81.324  41.038  0.00  0.00    -0.216 OA
BRANCH  14  18
ATOM     18  C5* UNL     1      50.229  84.000  44.083  0.00  0.00    +0.214 C 
ATOM     19  O5* UNL     1      49.224  84.627  43.354  0.00  0.00    -0.218 OA
ENDBRANCH  14  18
ENDBRANCH   9  11
BRANCH   1  21
ATOM     20  C   UNL     1      43.226  79.318  38.561  0.00  0.00    +0.254 C 
ATOM     21  O   UNL     1      44.279  79.308  39.481  0.00  0.00    -0.455 OA
ENDBRANCH   1  21
TORSDOF 3
