REMARK  Name = Nemonoxacin
REMARK  4 active torsions:
REMARK  status: ('A' for Active; 'I' for Inactive)
REMARK    1  A    between atoms: N_6  and  C_8
REMARK    2  A    between atoms: C_9  and  O_25
REMARK    3  A    between atoms: C_16  and  C_22
REMARK    4  A    between atoms: N_18  and  C_19
REMARK                            x       y       z     vdW  Elec       q    Type
REMARK                         _______ _______ _______ _____ _____    ______ ____
ROOT
ATOM      1  C   UNL     1      47.659  82.258  41.133  0.00  0.00    +0.084 A 
ATOM      2  C   UNL     1      47.116  81.022  41.437  0.00  0.00    +0.168 A 
ATOM      3  C   UNL     1      46.099  80.521  40.663  0.00  0.00    +0.099 A 
ATOM      4  C   UNL     1      45.607  81.245  39.571  0.00  0.00    +0.058 A 
ATOM      5  C   UNL     1      46.148  82.476  39.267  0.00  0.00    +0.006 A 
ATOM      6  C   UNL     1      47.163  82.969  40.046  0.00  0.00    +0.018 A 
ATOM      7  C   UNL     1      44.565  80.747  38.779  0.00  0.00    +0.205 A 
ATOM      8  O   UNL     1      44.163  81.456  37.796  0.00  0.00    -0.286 OA
ATOM      9  C   UNL     1      44.001  79.531  39.062  0.00  0.00    +0.136 A 
ATOM     10  C   UNL     1      44.510  78.854  40.140  0.00  0.00    +0.086 A 
ATOM     11  N   UNL     1      45.529  79.351  40.908  0.00  0.00    -0.325 N 
ENDROOT
BRANCH   1  17
ATOM     12  C   UNL     1      49.759  85.477  43.270  0.00  0.00    +0.002 C 
ATOM     13  C   UNL     1      49.537  84.090  43.844  0.00  0.00    +0.021 C 
ATOM     14  C   UNL     1      50.833  83.342  43.840  0.00  0.00    +0.022 C 
ATOM     15  C   UNL     1      50.976  82.353  42.741  0.00  0.00    +0.112 C 
ATOM     16  C   UNL     1      50.075  82.619  41.545  0.00  0.00    +0.110 C 
ATOM     17  N   UNL     1      48.701  82.751  41.943  0.00  0.00    -0.304 N 
ATOM     18  C   UNL     1      48.389  83.391  43.190  0.00  0.00    +0.091 C 
ATOM     19  N   UNL     1      52.337  82.381  42.244  0.00  0.00    -0.131 NA
ENDBRANCH   1  17
BRANCH  11  20
ATOM     20  C   UNL     1      45.959  78.533  42.048  0.00  0.00    +0.086 C 
ATOM     21  C   UNL     1      45.297  77.290  42.424  0.00  0.00    +0.024 C 
ATOM     22  C   UNL     1      46.457  77.150  41.548  0.00  0.00    +0.024 C 
ENDBRANCH  11  20
BRANCH   9  23
ATOM     23  C   UNL     1      42.924  79.032  38.230  0.00  0.00    +0.392 C 
ATOM     24  O   UNL     1      42.358  77.959  38.547  0.00  0.00    -0.240 OA
ATOM     25  O   UNL     1      42.478  79.679  37.093  0.00  0.00    -0.240 OA
ENDBRANCH   9  23
BRANCH   2  26
ATOM     26  O   UNL     1      47.616  80.336  42.506  0.00  0.00    -0.469 OA
ATOM     27  C   UNL     1      47.129  80.475  43.833  0.00  0.00    +0.253 C 
ENDBRANCH   2  26
TORSDOF 4
