REMARK  Name = Nemonapride
REMARK  6 active torsions:
REMARK  status: ('A' for Active; 'I' for Inactive)
REMARK    1  A    between atoms: C_3  and  N_14
REMARK    2  A    between atoms: N_6  and  C_7
REMARK    3  A    between atoms: C_7  and  C_8
REMARK    4  A    between atoms: C_15  and  C_17
REMARK    5  A    between atoms: C_20  and  N_25
REMARK    6  A    between atoms: C_22  and  O_23
REMARK                            x       y       z     vdW  Elec       q    Type
REMARK                         _______ _______ _______ _____ _____    ______ ____
ROOT
ATOM      1  N   UNL     1      45.624  80.724  40.143  0.00  0.00    -0.202 NA
ATOM      2  C   UNL     1      44.700  80.343  39.150  0.00  0.00    +0.268 C 
ATOM      3  O   UNL     1      44.707  81.061  38.083  0.00  0.00    -0.268 OA
ENDROOT
BRANCH   2   4
ATOM      4  C   UNL     1      43.780  79.248  39.239  0.00  0.00    +0.090 A 
ATOM      5  C   UNL     1      42.702  79.215  38.342  0.00  0.00    +0.020 A 
ATOM      6  C   UNL     1      41.779  78.205  38.356  0.00  0.00    +0.073 A 
ATOM      7  C   UNL     1      41.872  77.163  39.268  0.00  0.00    +0.079 A 
ATOM      8  C   UNL     1      42.913  77.173  40.151  0.00  0.00    +0.054 A 
ATOM      9  C   UNL     1      43.848  78.218  40.118  0.00  0.00    +0.144 A 
ATOM     10 CL   UNL     1      40.453  78.228  37.204  0.00  0.00    -0.081 Cl
BRANCH   9  11
ATOM     11  O   UNL     1      44.858  78.150  41.037  0.00  0.00    -0.471 OA
ATOM     12  C   UNL     1      44.985  77.153  42.012  0.00  0.00    +0.252 C 
ENDBRANCH   9  11
BRANCH   7  13
ATOM     13  N   UNL     1      40.893  76.143  39.240  0.00  0.00    -0.235 NA
ATOM     14  C   UNL     1      41.029  74.992  40.104  0.00  0.00    +0.135 C 
ENDBRANCH   7  13
ENDBRANCH   2   4
BRANCH   1  17
ATOM     15  C   UNL     1      49.097  79.732  40.620  0.00  0.00    +0.019 C 
ATOM     16  C   UNL     1      47.888  80.469  41.042  0.00  0.00    +0.078 C 
ATOM     17  C   UNL     1      47.063  80.799  39.798  0.00  0.00    +0.112 C 
ATOM     18  C   UNL     1      47.417  82.227  39.523  0.00  0.00    +0.040 C 
ATOM     19  C   UNL     1      48.077  82.755  40.779  0.00  0.00    +0.074 C 
ATOM     20  N   UNL     1      48.079  81.684  41.728  0.00  0.00    -0.269 NA
BRANCH  20  21
ATOM     21  C   UNL     1      49.079  81.827  42.687  0.00  0.00    +0.099 C 
BRANCH  21  22
ATOM     22  C   UNL     1      49.194  83.247  43.090  0.00  0.00    -0.006 A 
ATOM     23  C   UNL     1      48.073  83.977  43.465  0.00  0.00    -0.003 A 
ATOM     24  C   UNL     1      48.171  85.302  43.850  0.00  0.00    -0.000 A 
ATOM     25  C   UNL     1      49.386  85.948  43.877  0.00  0.00    -0.000 A 
ATOM     26  C   UNL     1      50.501  85.236  43.508  0.00  0.00    -0.000 A 
ATOM     27  C   UNL     1      50.402  83.894  43.118  0.00  0.00    -0.003 A 
ENDBRANCH  21  22
ENDBRANCH  20  21
ENDBRANCH   1  17
TORSDOF 6
