REMARK  Name = Neoandrographolide
REMARK  7 active torsions:
REMARK  status: ('A' for Active; 'I' for Inactive)
REMARK    1  A    between atoms: C_2  and  C_22
REMARK    2  A    between atoms: C_12  and  C_13
REMARK    3  A    between atoms: C_13  and  C_14
REMARK    4  A    between atoms: C_14  and  C_15
REMARK    5  A    between atoms: C_22  and  O_23
REMARK    6  A    between atoms: O_23  and  C_24
REMARK    7  A    between atoms: C_28  and  C_30
REMARK                            x       y       z     vdW  Elec       q    Type
REMARK                         _______ _______ _______ _____ _____    ______ ____
ROOT
ATOM      1  C   UNL     1      44.883  76.757  38.827  0.00  0.00    +0.002 C 
ATOM      2  C   UNL     1      44.788  77.847  39.928  0.00  0.00    +0.028 C 
ATOM      3  C   UNL     1      45.020  77.159  41.207  0.00  0.00    +0.002 C 
ATOM      4  C   UNL     1      45.145  78.127  42.340  0.00  0.00    +0.000 C 
ATOM      5  C   UNL     1      45.597  79.486  42.014  0.00  0.00    +0.000 C 
ATOM      6  C   UNL     1      46.469  79.590  40.740  0.00  0.00    +0.004 C 
ATOM      7  C   UNL     1      46.077  78.691  39.669  0.00  0.00    +0.003 C 
ATOM      8  C   UNL     1      46.140  79.116  38.247  0.00  0.00    +0.004 C 
ATOM      9  C   UNL     1      46.143  80.611  38.065  0.00  0.00    +0.022 C 
ATOM     10  C   UNL     1      45.739  81.326  39.278  0.00  0.00    -0.045 C 
ATOM     11  C   UNL     1      44.712  82.137  39.275  0.00  0.00    -0.009 C 
ATOM     12  C   UNL     1      46.523  81.088  40.505  0.00  0.00    +0.019 C 
ATOM     13  C   UNL     1      47.864  79.199  41.296  0.00  0.00    +0.000 C 
ENDROOT
BRANCH  12  14
ATOM     14  C   UNL     1      47.881  81.681  40.515  0.00  0.00    +0.009 C 
BRANCH  14  15
ATOM     15  C   UNL     1      48.211  82.751  41.425  0.00  0.00    +0.033 C 
BRANCH  15  16
ATOM     16  C   UNL     1      49.492  83.215  41.870  0.00  0.00    +0.053 C 
ATOM     17  C   UNL     1      50.749  83.055  41.596  0.00  0.00    +0.023 C 
ATOM     18  C   UNL     1      51.656  83.876  42.474  0.00  0.00    +0.235 C 
ATOM     19  O   UNL     1      50.797  84.547  43.319  0.00  0.00    -0.441 OA
ATOM     20  C   UNL     1      49.526  84.206  43.014  0.00  0.00    +0.337 C 
ATOM     21  O   UNL     1      48.511  84.647  43.596  0.00  0.00    -0.245 OA
ENDBRANCH  15  16
ENDBRANCH  14  15
ENDBRANCH  12  14
BRANCH   2  22
ATOM     22  C   UNL     1      43.576  78.613  39.678  0.00  0.00    +0.145 C 
BRANCH  22  23
ATOM     23  O   UNL     1      42.950  78.521  38.488  0.00  0.00    -0.329 OA
BRANCH  23  24
ATOM     24  C   UNL     1      41.966  77.646  38.216  0.00  0.00    +0.269 C 
ATOM     25  C   UNL     1      40.659  78.282  37.829  0.00  0.00    +0.241 C 
ATOM     26  C   UNL     1      39.622  77.211  37.573  0.00  0.00    +0.220 C 
ATOM     27  C   UNL     1      39.452  76.456  38.878  0.00  0.00    +0.214 C 
ATOM     28  C   UNL     1      40.790  75.968  39.320  0.00  0.00    +0.183 C 
ATOM     29  O   UNL     1      41.766  76.920  39.445  0.00  0.00    -0.326 OA
ATOM     30  O   UNL     1      38.648  75.347  38.618  0.00  0.00    -0.218 OA
ATOM     31  O   UNL     1      38.405  77.802  37.272  0.00  0.00    -0.217 OA
ATOM     32  O   UNL     1      40.836  79.122  36.755  0.00  0.00    -0.215 OA
BRANCH  28  33
ATOM     33  C   UNL     1      41.196  74.792  38.459  0.00  0.00    +0.214 C 
ATOM     34  O   UNL     1      42.182  74.009  39.065  0.00  0.00    -0.218 OA
ENDBRANCH  28  33
ENDBRANCH  23  24
ENDBRANCH  22  23
ENDBRANCH   2  22
TORSDOF 7
