REMARK  Name = Nepafenac
REMARK  4 active torsions:
REMARK  status: ('A' for Active; 'I' for Inactive)
REMARK    1  A    between atoms: C_4  and  C_7
REMARK    2  A    between atoms: C_7  and  C_9
REMARK    3  A    between atoms: C_13  and  C_16
REMARK    4  A    between atoms: C_16  and  C_17
REMARK                            x       y       z     vdW  Elec       q    Type
REMARK                         _______ _______ _______ _____ _____    ______ ____
ROOT
ATOM      1  C   UNL     1      47.218  81.567  40.742  0.00  0.00    +0.055 A 
ATOM      2  C   UNL     1      47.024  82.520  39.768  0.00  0.00    +0.005 A 
ATOM      3  C   UNL     1      45.976  82.337  38.865  0.00  0.00    -0.000 A 
ATOM      4  C   UNL     1      45.173  81.229  38.965  0.00  0.00    -0.002 A 
ATOM      5  C   UNL     1      45.347  80.263  39.930  0.00  0.00    +0.004 A 
ATOM      6  C   UNL     1      46.380  80.448  40.816  0.00  0.00    +0.089 A 
ATOM      7  N   UNL     1      46.607  79.499  41.831  0.00  0.00    -0.128 NA
ENDROOT
BRANCH   1   8
ATOM      8  C   UNL     1      48.260  81.744  41.733  0.00  0.00    +0.197 C 
ATOM      9  O   UNL     1      48.899  80.680  42.077  0.00  0.00    -0.287 OA
BRANCH   8  13
ATOM     10  C   UNL     1      49.540  85.212  43.726  0.00  0.00    +0.000 A 
ATOM     11  C   UNL     1      48.211  85.115  43.358  0.00  0.00    +0.000 A 
ATOM     12  C   UNL     1      47.800  83.957  42.676  0.00  0.00    +0.003 A 
ATOM     13  C   UNL     1      48.672  82.954  42.382  0.00  0.00    +0.039 A 
ATOM     14  C   UNL     1      50.006  83.106  42.779  0.00  0.00    +0.003 A 
ATOM     15  C   UNL     1      50.453  84.225  43.449  0.00  0.00    +0.000 A 
ENDBRANCH   8  13
ENDBRANCH   1   8
BRANCH   5  16
ATOM     16  C   UNL     1      44.453  79.067  39.992  0.00  0.00    +0.116 C 
BRANCH  16  17
ATOM     17  C   UNL     1      43.668  78.958  38.737  0.00  0.00    +0.265 C 
ATOM     18  O   UNL     1      42.460  78.663  38.808  0.00  0.00    -0.271 OA
ATOM     19  N   UNL     1      44.322  79.193  37.492  0.00  0.00    -0.087 NA
ENDBRANCH  16  17
ENDBRANCH   5  16
TORSDOF 4
