REMARK  Name = NERATINIB_MALEATE
REMARK  14 active torsions:
REMARK  status: ('A' for Active; 'I' for Inactive)
REMARK    1  A    between atoms: C_2  and  O_3
REMARK    2  A    between atoms: O_3  and  C_4
REMARK    3  A    between atoms: C_5  and  N_32
REMARK    4  A    between atoms: C_12  and  C_30
REMARK    5  A    between atoms: C_13  and  N_14
REMARK    6  A    between atoms: N_14  and  C_15
REMARK    7  A    between atoms: C_18  and  O_21
REMARK    8  A    between atoms: O_21  and  C_22
REMARK    9  A    between atoms: C_22  and  C_23
REMARK   10  A    between atoms: C_33  and  C_35
REMARK   11  A    between atoms: C_36  and  C_37
REMARK   12  A    between atoms: C_37  and  N_38
REMARK   13  A    between atoms: C_41  and  C_46
REMARK   14  A    between atoms: C_42  and  C_43
REMARK                            x       y       z     vdW  Elec       q    Type
REMARK                         _______ _______ _______ _____ _____    ______ ____
ROOT
ATOM      1  C   UNL     1      40.334  78.645  39.870  0.00  0.00    +0.155 A 
ATOM      2  C   UNL     1      41.442  78.552  39.067  0.00  0.00    +0.108 A 
ATOM      3  C   UNL     1      42.681  78.277  39.648  0.00  0.00    +0.023 A 
ATOM      4  C   UNL     1      42.743  78.097  41.009  0.00  0.00    +0.035 A 
ATOM      5  C   UNL     1      41.642  78.177  41.834  0.00  0.00    +0.086 A 
ATOM      6  C   UNL     1      40.370  78.476  41.195  0.00  0.00    +0.057 A 
ATOM      7  N   UNL     1      41.744  77.954  43.123  0.00  0.00    -0.243 NA
ATOM      8  C   UNL     1      42.904  77.628  43.772  0.00  0.00    +0.110 A 
ATOM      9  C   UNL     1      44.040  77.537  42.974  0.00  0.00    +0.103 A 
ATOM     10  C   UNL     1      43.931  77.775  41.626  0.00  0.00    +0.083 A 
ENDROOT
BRANCH   2  11
ATOM     11  N   UNL     1      41.298  78.443  37.630  0.00  0.00    -0.172 NA
ATOM     12  C   UNL     1      41.250  77.074  37.184  0.00  0.00    +0.269 C 
ATOM     13  O   UNL     1      41.983  76.309  37.862  0.00  0.00    -0.268 OA
BRANCH  12  14
ATOM     14  C   UNL     1      40.444  76.607  36.072  0.00  0.00    +0.057 C 
ATOM     15  C   UNL     1      40.771  75.371  35.550  0.00  0.00    -0.004 C 
BRANCH  15  16
ATOM     16  C   UNL     1      40.130  74.691  34.510  0.00  0.00    +0.099 C 
BRANCH  16  17
ATOM     17  N   UNL     1      40.672  73.376  34.153  0.00  0.00    -0.267 NA
ATOM     18  C   UNL     1      41.568  73.403  33.059  0.00  0.00    +0.090 C 
ATOM     19  C   UNL     1      39.579  72.441  34.046  0.00  0.00    +0.090 C 
ENDBRANCH  16  17
ENDBRANCH  15  16
ENDBRANCH  12  14
ENDBRANCH   2  11
BRANCH   9  20
ATOM     20  C   UNL     1      45.327  77.145  43.532  0.00  0.00    +0.103 C 
ATOM     21  N   UNL     1      46.336  76.851  43.969  0.00  0.00    -0.191 NA
ENDBRANCH   9  20
BRANCH   1  22
ATOM     22  O   UNL     1      39.099  78.943  39.230  0.00  0.00    -0.474 OA
BRANCH  22  24
ATOM     23  C   UNL     1      36.767  79.364  38.926  0.00  0.00    +0.051 C 
ATOM     24  C   UNL     1      37.915  79.176  39.958  0.00  0.00    +0.206 C 
ENDBRANCH  22  24
ENDBRANCH   1  22
BRANCH  10  25
ATOM     25  N   UNL     1      45.104  77.717  40.806  0.00  0.00    -0.212 NA
BRANCH  25  26
ATOM     26  C   UNL     1      45.797  78.936  40.572  0.00  0.00    +0.072 A 
ATOM     27  C   UNL     1      45.382  80.119  41.136  0.00  0.00    +0.031 A 
ATOM     28  C   UNL     1      45.994  81.314  40.933  0.00  0.00    +0.093 A 
ATOM     29  C   UNL     1      47.137  81.424  40.098  0.00  0.00    +0.150 A 
ATOM     30  C   UNL     1      47.568  80.260  39.521  0.00  0.00    +0.039 A 
ATOM     31  C   UNL     1      46.930  79.039  39.739  0.00  0.00    +0.020 A 
ATOM     32 CL   UNL     1      45.396  82.757  41.685  0.00  0.00    -0.079 Cl
BRANCH  29  33
ATOM     33  O   UNL     1      47.660  82.670  39.975  0.00  0.00    -0.468 OA
BRANCH  33  34
ATOM     34  C   UNL     1      48.319  83.448  40.933  0.00  0.00    +0.251 C 
BRANCH  34  35
ATOM     35  C   UNL     1      49.660  82.871  41.209  0.00  0.00    +0.103 A 
ATOM     36  C   UNL     1      50.468  82.361  40.199  0.00  0.00    +0.018 A 
ATOM     37  C   UNL     1      51.696  81.868  40.492  0.00  0.00    +0.003 A 
ATOM     38  C   UNL     1      52.145  81.870  41.794  0.00  0.00    +0.021 A 
ATOM     39  C   UNL     1      51.369  82.361  42.781  0.00  0.00    +0.099 A 
ATOM     40  N   UNL     1      50.125  82.868  42.506  0.00  0.00    -0.244 NA
ENDBRANCH  34  35
ENDBRANCH  33  34
ENDBRANCH  29  33
ENDBRANCH  25  26
ENDBRANCH  10  25
TORSDOF 12
REMARK  Name = NERATINIB_MALEATE
REMARK  14 active torsions:
REMARK  status: ('A' for Active; 'I' for Inactive)
REMARK    1  A    between atoms: C_2  and  O_3
REMARK    2  A    between atoms: O_3  and  C_4
REMARK    3  A    between atoms: C_5  and  N_32
REMARK    4  A    between atoms: C_12  and  C_30
REMARK    5  A    between atoms: C_13  and  N_14
REMARK    6  A    between atoms: N_14  and  C_15
REMARK    7  A    between atoms: C_18  and  O_21
REMARK    8  A    between atoms: O_21  and  C_22
REMARK    9  A    between atoms: C_22  and  C_23
REMARK   10  A    between atoms: C_33  and  C_35
REMARK   11  A    between atoms: C_36  and  C_37
REMARK   12  A    between atoms: C_37  and  N_38
REMARK   13  A    between atoms: C_41  and  C_46
REMARK   14  A    between atoms: C_42  and  C_43
REMARK                            x       y       z     vdW  Elec       q    Type
REMARK                         _______ _______ _______ _____ _____    ______ ____
ROOT
ATOM      1  C   UNL     1      43.505  78.623  39.398  0.00  0.00    +0.093 C 
ATOM      2  C   UNL     1      42.987  78.584  38.184  0.00  0.00    +0.093 C 
ENDROOT
BRANCH   2   3
ATOM      3  C   UNL     1      42.046  77.539  37.815  0.00  0.00    +0.388 C 
ATOM      4  O   UNL     1      41.035  77.316  38.531  0.00  0.00    -0.241 OA
ATOM      5  O   UNL     1      42.223  76.770  36.689  0.00  0.00    -0.241 OA
ENDBRANCH   2   3
BRANCH   1   6
ATOM      6  C   UNL     1      44.198  79.802  39.893  0.00  0.00    +0.388 C 
ATOM      7  O   UNL     1      44.716  80.625  39.127  0.00  0.00    -0.241 OA
ATOM      8  O   UNL     1      44.300  80.040  41.262  0.00  0.00    -0.241 OA
ENDBRANCH   1   6
TORSDOF 2
