REMARK  Name = NERIDRONIC_ACID
REMARK  7 active torsions:
REMARK  status: ('A' for Active; 'I' for Inactive)
REMARK    1  A    between atoms: C_1  and  C_2
REMARK    2  A    between atoms: C_1  and  C_14
REMARK    3  A    between atoms: C_2  and  C_3
REMARK    4  A    between atoms: C_3  and  C_4
REMARK    5  A    between atoms: C_4  and  P_6
REMARK    6  A    between atoms: C_4  and  P_10
REMARK    7  A    between atoms: C_14  and  C_15
REMARK                            x       y       z     vdW  Elec       q    Type
REMARK                         _______ _______ _______ _____ _____    ______ ____
ROOT
ATOM      1  C   UNL     1      45.542  80.267  40.407  0.00  0.00    +0.318 C 
ATOM      2  O   UNL     1      44.676  80.909  41.258  0.00  0.00    -0.200 OA
ENDROOT
BRANCH   1   3
ATOM      3  P   UNL     1      45.703  81.322  38.931  0.00  0.00    +0.433 P 
ATOM      4  O   UNL     1      46.359  82.614  39.380  0.00  0.00    -0.250 OA
ATOM      5  O   UNL     1      46.680  80.615  37.772  0.00  0.00    -0.136 OA
ATOM      6  O   UNL     1      44.171  81.678  38.346  0.00  0.00    -0.136 OA
ENDBRANCH   1   3
BRANCH   1   7
ATOM      7  P   UNL     1      44.885  78.644  39.905  0.00  0.00    +0.433 P 
ATOM      8  O   UNL     1      45.924  77.954  39.088  0.00  0.00    -0.250 OA
ATOM      9  O   UNL     1      43.508  78.891  38.958  0.00  0.00    -0.136 OA
ATOM     10  O   UNL     1      44.576  77.760  41.287  0.00  0.00    -0.136 OA
ENDBRANCH   1   7
BRANCH   1  11
ATOM     11  C   UNL     1      46.901  80.050  40.963  0.00  0.00    +0.055 C 
BRANCH  11  12
ATOM     12  C   UNL     1      47.618  81.299  41.346  0.00  0.00    +0.004 C 
BRANCH  12  13
ATOM     13  C   UNL     1      48.920  81.089  42.017  0.00  0.00    +0.002 C 
BRANCH  13  14
ATOM     14  C   UNL     1      50.005  82.021  41.492  0.00  0.00    +0.021 C 
BRANCH  14  15
ATOM     15  C   UNL     1      50.817  82.609  42.597  0.00  0.00    +0.109 C 
ATOM     16  N   UNL     1      51.919  81.732  42.991  0.00  0.00    -0.131 NA
ENDBRANCH  14  15
ENDBRANCH  13  14
ENDBRANCH  12  13
ENDBRANCH  11  12
ENDBRANCH   1  11
TORSDOF 7
