REMARK  Name = Netarsudil
REMARK  8 active torsions:
REMARK  status: ('A' for Active; 'I' for Inactive)
REMARK    1  A    between atoms: C_5  and  C_8
REMARK    2  A    between atoms: C_8  and  O_10
REMARK    3  A    between atoms: O_10  and  C_11
REMARK    4  A    between atoms: C_11  and  C_12
REMARK    5  A    between atoms: C_15  and  C_18
REMARK    6  A    between atoms: C_18  and  C_19
REMARK    7  A    between atoms: C_18  and  C_21
REMARK    8  A    between atoms: N_23  and  C_24
REMARK                            x       y       z     vdW  Elec       q    Type
REMARK                         _______ _______ _______ _____ _____    ______ ____
ROOT
ATOM      1  C   UNL     1      51.898  82.343  45.674  0.00  0.00    +0.021 A 
ATOM      2  C   UNL     1      52.712  81.424  45.089  0.00  0.00    -0.001 A 
ATOM      3  C   UNL     1      52.209  80.483  44.199  0.00  0.00    -0.004 A 
ATOM      4  C   UNL     1      50.871  80.480  43.906  0.00  0.00    -0.012 A 
ATOM      5  C   UNL     1      50.065  81.421  44.512  0.00  0.00    -0.004 A 
ATOM      6  C   UNL     1      50.523  82.369  45.398  0.00  0.00    -0.001 A 
ENDROOT
BRANCH   1   7
ATOM      7  C   UNL     1      52.413  83.349  46.599  0.00  0.00    +0.235 C 
BRANCH   7   8
ATOM      8  O   UNL     1      53.387  82.893  47.454  0.00  0.00    -0.440 OA
BRANCH   8   9
ATOM      9  C   UNL     1      54.119  83.616  48.350  0.00  0.00    +0.341 C 
ATOM     10  O   UNL     1      53.899  84.839  48.474  0.00  0.00    -0.245 OA
BRANCH   9  15
ATOM     11  C   UNL     1      58.265  81.307  51.660  0.00  0.00    +0.031 C 
ATOM     12  C   UNL     1      57.187  81.883  50.813  0.00  0.00    -0.022 A 
ATOM     13  C   UNL     1      55.987  81.244  50.605  0.00  0.00    -0.008 A 
ATOM     14  C   UNL     1      54.991  81.804  49.806  0.00  0.00    -0.016 A 
ATOM     15  C   UNL     1      55.167  83.028  49.190  0.00  0.00    +0.072 A 
ATOM     16  C   UNL     1      56.370  83.665  49.401  0.00  0.00    +0.006 A 
ATOM     17  C   UNL     1      57.361  83.108  50.195  0.00  0.00    -0.004 A 
ATOM     18  C   UNL     1      53.697  81.089  49.597  0.00  0.00    +0.031 C 
ENDBRANCH   9  15
ENDBRANCH   8   9
ENDBRANCH   7   8
ENDBRANCH   1   7
BRANCH   4  19
ATOM     19  C   UNL     1      50.291  79.482  42.971  0.00  0.00    +0.120 C 
BRANCH  19  20
ATOM     20  C   UNL     1      49.165  79.996  42.195  0.00  0.00    +0.251 C 
ATOM     21  O   UNL     1      49.315  80.929  41.367  0.00  0.00    -0.273 OA
ATOM     22  N   UNL     1      47.830  79.484  42.318  0.00  0.00    -0.179 NA
BRANCH  22  23
ATOM     23  C   UNL     1      46.800  79.835  41.408  0.00  0.00    +0.073 A 
ATOM     24  C   UNL     1      46.869  81.025  40.718  0.00  0.00    +0.017 A 
ATOM     25  C   UNL     1      45.876  81.404  39.814  0.00  0.00    +0.004 A 
ATOM     26  C   UNL     1      44.786  80.588  39.585  0.00  0.00    +0.019 A 
ATOM     27  C   UNL     1      44.708  79.399  40.267  0.00  0.00    +0.003 A 
ATOM     28  C   UNL     1      45.701  79.047  41.156  0.00  0.00    +0.017 A 
ATOM     29  C   UNL     1      43.816  80.988  38.685  0.00  0.00    +0.099 A 
ATOM     30  N   UNL     1      43.939  82.169  38.038  0.00  0.00    -0.242 NA
ATOM     31  C   UNL     1      44.989  82.998  38.231  0.00  0.00    +0.099 A 
ATOM     32  C   UNL     1      45.955  82.595  39.130  0.00  0.00    +0.021 A 
ENDBRANCH  22  23
ENDBRANCH  19  20
BRANCH  19  33
ATOM     33  C   UNL     1      51.386  78.982  42.067  0.00  0.00    +0.123 C 
ATOM     34  N   UNL     1      51.155  77.648  41.625  0.00  0.00    -0.131 NA
ENDBRANCH  19  33
ENDBRANCH   4  19
TORSDOF 8
