REMARK  Name = Netilmicin
REMARK  8 active torsions:
REMARK  status: ('A' for Active; 'I' for Inactive)
REMARK    1  A    between atoms: C_2  and  N_3
REMARK    2  A    between atoms: N_3  and  C_4
REMARK    3  A    between atoms: C_7  and  O_23
REMARK    4  A    between atoms: C_9  and  O_10
REMARK    5  A    between atoms: O_10  and  C_11
REMARK    6  A    between atoms: C_13  and  N_19
REMARK    7  A    between atoms: O_23  and  C_24
REMARK    8  A    between atoms: C_28  and  C_30
REMARK                            x       y       z     vdW  Elec       q    Type
REMARK                         _______ _______ _______ _____ _____    ______ ____
ROOT
ATOM      1  C   UNL     1      47.215  80.226  40.800  0.00  0.00    +0.104 C 
ATOM      2  C   UNL     1      46.533  78.930  41.080  0.00  0.00    +0.042 C 
ATOM      3  C   UNL     1      45.713  78.453  39.884  0.00  0.00    +0.123 C 
ATOM      4  C   UNL     1      44.895  79.657  39.463  0.00  0.00    +0.169 C 
ATOM      5  C   UNL     1      45.713  80.729  38.848  0.00  0.00    +0.209 C 
ATOM      6  C   UNL     1      47.135  80.656  39.337  0.00  0.00    +0.166 C 
ATOM      7  O   UNL     1      45.787  80.657  37.459  0.00  0.00    -0.218 OA
ATOM      8  N   UNL     1      46.587  77.928  38.905  0.00  0.00    -0.130 NA
ENDROOT
BRANCH   1   9
ATOM      9  N   UNL     1      46.944  81.297  41.694  0.00  0.00    -0.217 NA
BRANCH   9  11
ATOM     10  C   UNL     1      48.861  80.437  43.026  0.00  0.00    +0.020 C 
ATOM     11  C   UNL     1      47.796  81.459  42.816  0.00  0.00    +0.089 C 
ENDBRANCH   9  11
ENDBRANCH   1   9
BRANCH   6  12
ATOM     12  O   UNL     1      47.776  81.897  39.258  0.00  0.00    -0.327 OA
BRANCH  12  13
ATOM     13  C   UNL     1      47.936  82.508  40.472  0.00  0.00    +0.268 C 
ATOM     14  C   UNL     1      49.367  82.791  40.861  0.00  0.00    +0.226 C 
ATOM     15  C   UNL     1      49.303  83.795  42.027  0.00  0.00    +0.138 C 
ATOM     16  C   UNL     1      48.413  83.264  43.091  0.00  0.00    +0.171 C 
ATOM     17  C   UNL     1      47.324  82.342  42.680  0.00  0.00    +0.176 C 
ATOM     18  O   UNL     1      47.465  81.660  41.508  0.00  0.00    -0.326 OA
ATOM     19  C   UNL     1      47.732  84.413  43.856  0.00  0.00    +0.037 C 
ATOM     20  O   UNL     1      49.255  82.661  44.058  0.00  0.00    -0.222 OA
ATOM     21  O   UNL     1      50.148  83.262  39.828  0.00  0.00    -0.216 OA
BRANCH  15  22
ATOM     22  N   UNL     1      50.652  83.998  42.533  0.00  0.00    -0.213 NA
ATOM     23  C   UNL     1      51.380  84.941  41.727  0.00  0.00    +0.108 C 
ENDBRANCH  15  22
ENDBRANCH  12  13
ENDBRANCH   6  12
BRANCH   4  24
ATOM     24  O   UNL     1      43.752  79.321  38.781  0.00  0.00    -0.318 OA
BRANCH  24  25
ATOM     25  C   UNL     1      42.606  79.198  39.527  0.00  0.00    +0.306 C 
ATOM     26  C   UNL     1      41.454  79.110  38.508  0.00  0.00    +0.166 C 
ATOM     27  C   UNL     1      41.551  77.845  37.720  0.00  0.00    +0.054 C 
ATOM     28  C   UNL     1      41.578  76.688  38.638  0.00  0.00    +0.010 C 
ATOM     29  C   UNL     1      42.069  76.819  39.844  0.00  0.00    +0.134 C 
ATOM     30  O   UNL     1      42.564  78.007  40.284  0.00  0.00    -0.455 OA
ATOM     31  N   UNL     1      41.481  80.231  37.589  0.00  0.00    -0.126 NA
BRANCH  29  32
ATOM     32  C   UNL     1      42.054  75.588  40.703  0.00  0.00    +0.172 C 
ATOM     33  N   UNL     1      43.203  75.493  41.551  0.00  0.00    -0.123 NA
ENDBRANCH  29  32
ENDBRANCH  24  25
ENDBRANCH   4  24
TORSDOF 8
