REMARK  Name = Nevirapine
REMARK  1 active torsions:
REMARK  status: ('A' for Active; 'I' for Inactive)
REMARK    1  A    between atoms: N_8  and  C_18
REMARK                            x       y       z     vdW  Elec       q    Type
REMARK                         _______ _______ _______ _____ _____    ______ ____
ROOT
ATOM      1  C   UNL     1      48.418  83.681  39.522  0.00  0.00    +0.033 C 
ATOM      2  C   UNL     1      48.181  82.504  40.386  0.00  0.00    -0.002 A 
ATOM      3  C   UNL     1      47.271  81.538  40.051  0.00  0.00    +0.102 A 
ATOM      4  C   UNL     1      47.103  80.455  40.919  0.00  0.00    +0.152 A 
ATOM      5  N   UNL     1      47.805  80.346  42.053  0.00  0.00    -0.227 NA
ATOM      6  C   UNL     1      48.700  81.292  42.385  0.00  0.00    +0.100 A 
ATOM      7  C   UNL     1      48.888  82.365  41.558  0.00  0.00    +0.018 A 
ATOM      8  N   UNL     1      46.222  79.326  40.788  0.00  0.00    -0.258 N 
ATOM      9  C   UNL     1      44.989  79.305  40.085  0.00  0.00    +0.141 A 
ATOM     10  C   UNL     1      44.650  80.097  38.975  0.00  0.00    +0.087 A 
ATOM     11  C   UNL     1      43.403  79.963  38.401  0.00  0.00    +0.009 A 
ATOM     12  C   UNL     1      42.509  79.073  38.906  0.00  0.00    +0.021 A 
ATOM     13  C   UNL     1      42.892  78.313  40.006  0.00  0.00    +0.100 A 
ATOM     14  N   UNL     1      44.103  78.441  40.566  0.00  0.00    -0.229 NA
ATOM     15  C   UNL     1      45.485  81.112  38.312  0.00  0.00    +0.272 C 
ATOM     16  O   UNL     1      45.130  81.385  37.162  0.00  0.00    -0.268 OA
ATOM     17  N   UNL     1      46.602  81.784  38.822  0.00  0.00    -0.173 NA
ENDROOT
BRANCH   8  18
ATOM     18  C   UNL     1      46.612  78.106  41.437  0.00  0.00    +0.080 C 
ATOM     19  C   UNL     1      46.932  77.937  42.843  0.00  0.00    +0.022 C 
ATOM     20  C   UNL     1      45.700  77.251  42.209  0.00  0.00    +0.022 C 
ENDBRANCH   8  18
TORSDOF 1
