REMARK  Name = Nicardipine
REMARK  11 active torsions:
REMARK  status: ('A' for Active; 'I' for Inactive)
REMARK    1  A    between atoms: C_3  and  C_32
REMARK    2  A    between atoms: C_4  and  C_23
REMARK    3  A    between atoms: C_5  and  C_9
REMARK    4  A    between atoms: C_9  and  O_11
REMARK    5  A    between atoms: O_11  and  C_12
REMARK    6  A    between atoms: C_12  and  C_13
REMARK    7  A    between atoms: C_13  and  N_14
REMARK    8  A    between atoms: N_14  and  C_16
REMARK    9  A    between atoms: C_16  and  C_17
REMARK   10  A    between atoms: C_25  and  N_29
REMARK   11  A    between atoms: C_32  and  O_34
REMARK                            x       y       z     vdW  Elec       q    Type
REMARK                         _______ _______ _______ _____ _____    ______ ____
ROOT
ATOM      1  C   UNL     1      42.117  79.714  37.479  0.00  0.00    +0.049 C 
ATOM      2  C   UNL     1      43.371  79.984  38.284  0.00  0.00    +0.051 C 
ATOM      3  C   UNL     1      43.913  78.995  38.951  0.00  0.00    +0.073 C 
ATOM      4  C   UNL     1      45.124  79.176  39.751  0.00  0.00    +0.081 C 
ATOM      5  C   UNL     1      45.666  80.523  39.742  0.00  0.00    +0.073 C 
ATOM      6  C   UNL     1      45.107  81.494  39.067  0.00  0.00    +0.051 C 
ATOM      7  N   UNL     1      43.920  81.289  38.291  0.00  0.00    -0.221 NA
ATOM      8  C   UNL     1      45.687  82.894  39.069  0.00  0.00    +0.049 C 
ENDROOT
BRANCH   4   9
ATOM      9  C   UNL     1      44.985  78.614  41.117  0.00  0.00    -0.012 A 
ATOM     10  C   UNL     1      45.420  77.347  41.400  0.00  0.00    +0.020 A 
ATOM     11  C   UNL     1      45.307  76.787  42.668  0.00  0.00    +0.143 A 
ATOM     12  C   UNL     1      44.740  77.541  43.651  0.00  0.00    +0.024 A 
ATOM     13  C   UNL     1      44.291  78.803  43.423  0.00  0.00    +0.001 A 
ATOM     14  C   UNL     1      44.419  79.341  42.138  0.00  0.00    -0.004 A 
BRANCH  11  15
ATOM     15  N   UNL     1      45.756  75.482  42.958  0.00  0.00    +0.058 N 
ATOM     16  O   UNL     1      46.127  74.726  42.054  0.00  0.00    -0.126 OA
ATOM     17  O   UNL     1      45.786  75.034  44.250  0.00  0.00    -0.126 OA
ENDBRANCH  11  15
ENDBRANCH   4   9
BRANCH   5  18
ATOM     18  C   UNL     1      46.894  80.838  40.515  0.00  0.00    +0.339 C 
ATOM     19  O   UNL     1      47.541  81.900  40.218  0.00  0.00    -0.245 OA
BRANCH  18  20
ATOM     20  O   UNL     1      47.390  80.081  41.524  0.00  0.00    -0.444 OA
BRANCH  20  21
ATOM     21  C   UNL     1      48.739  79.856  41.813  0.00  0.00    +0.226 C 
BRANCH  21  22
ATOM     22  C   UNL     1      49.105  80.636  43.032  0.00  0.00    +0.120 C 
BRANCH  22  23
ATOM     23  N   UNL     1      50.489  80.876  43.214  0.00  0.00    -0.265 NA
ATOM     24  C   UNL     1      51.332  79.734  43.151  0.00  0.00    +0.090 C 
BRANCH  23  25
ATOM     25  C   UNL     1      50.992  82.021  42.498  0.00  0.00    +0.099 C 
BRANCH  25  26
ATOM     26  C   UNL     1      50.196  83.209  42.882  0.00  0.00    -0.006 A 
ATOM     27  C   UNL     1      50.721  84.259  43.599  0.00  0.00    -0.003 A 
ATOM     28  C   UNL     1      49.986  85.370  43.961  0.00  0.00    -0.000 A 
ATOM     29  C   UNL     1      48.664  85.443  43.593  0.00  0.00    -0.000 A 
ATOM     30  C   UNL     1      48.115  84.404  42.875  0.00  0.00    -0.000 A 
ATOM     31  C   UNL     1      48.855  83.317  42.528  0.00  0.00    -0.003 A 
ENDBRANCH  25  26
ENDBRANCH  23  25
ENDBRANCH  22  23
ENDBRANCH  21  22
ENDBRANCH  20  21
ENDBRANCH  18  20
ENDBRANCH   5  18
BRANCH   3  32
ATOM     32  C   UNL     1      43.294  77.645  38.905  0.00  0.00    +0.339 C 
ATOM     33  O   UNL     1      43.902  76.606  39.207  0.00  0.00    -0.245 OA
BRANCH  32  34
ATOM     34  O   UNL     1      41.965  77.522  38.504  0.00  0.00    -0.442 OA
ATOM     35  C   UNL     1      41.442  76.274  38.123  0.00  0.00    +0.256 C 
ENDBRANCH  32  34
ENDBRANCH   3  32
TORSDOF 11
