REMARK  Name = Nicergoline
REMARK  5 active torsions:
REMARK  status: ('A' for Active; 'I' for Inactive)
REMARK    1  A    between atoms: C_4  and  C_21
REMARK    2  A    between atoms: C_6  and  O_19
REMARK    3  A    between atoms: C_21  and  O_22
REMARK    4  A    between atoms: O_22  and  C_23
REMARK    5  A    between atoms: C_23  and  C_25
REMARK                            x       y       z     vdW  Elec       q    Type
REMARK                         _______ _______ _______ _____ _____    ______ ____
ROOT
ATOM      1  C   UNL     1      43.943  81.323  38.059  0.00  0.00    +0.090 C 
ATOM      2  N   UNL     1      44.230  80.464  39.191  0.00  0.00    -0.270 NA
ATOM      3  C   UNL     1      45.207  81.145  40.020  0.00  0.00    +0.076 C 
ATOM      4  C   UNL     1      45.469  80.299  41.227  0.00  0.00    +0.063 C 
ATOM      5  C   UNL     1      45.947  78.914  40.858  0.00  0.00    +0.038 C 
ATOM      6  C   UNL     1      45.055  78.256  39.842  0.00  0.00    +0.125 C 
ATOM      7  C   UNL     1      44.780  79.216  38.700  0.00  0.00    +0.091 C 
ATOM      8  C   UNL     1      43.899  78.661  37.646  0.00  0.00    +0.047 C 
ATOM      9  C   UNL     1      42.687  78.017  38.224  0.00  0.00    -0.002 A 
ATOM     10  C   UNL     1      41.418  77.725  37.787  0.00  0.00    +0.072 A 
ATOM     11  N   UNL     1      40.725  77.138  38.793  0.00  0.00    -0.324 N 
ATOM     12  C   UNL     1      41.508  77.037  39.880  0.00  0.00    +0.059 A 
ATOM     13  C   UNL     1      41.400  76.563  41.157  0.00  0.00    +0.017 A 
ATOM     14  C   UNL     1      42.480  76.648  42.011  0.00  0.00    +0.001 A 
ATOM     15  C   UNL     1      43.681  77.192  41.642  0.00  0.00    -0.002 A 
ATOM     16  C   UNL     1      43.819  77.687  40.330  0.00  0.00    +0.004 A 
ATOM     17  C   UNL     1      42.732  77.589  39.511  0.00  0.00    +0.012 A 
ATOM     18  C   UNL     1      39.341  76.668  38.756  0.00  0.00    +0.130 C 
ENDROOT
BRANCH   6  19
ATOM     19  O   UNL     1      45.805  77.231  39.254  0.00  0.00    -0.350 OA
ATOM     20  C   UNL     1      46.964  76.936  39.928  0.00  0.00    +0.174 C 
ENDBRANCH   6  19
BRANCH   4  21
ATOM     21  C   UNL     1      46.580  80.954  42.023  0.00  0.00    +0.210 C 
BRANCH  21  22
ATOM     22  O   UNL     1      47.840  80.336  41.720  0.00  0.00    -0.445 OA
BRANCH  22  23
ATOM     23  C   UNL     1      48.891  81.078  41.218  0.00  0.00    +0.343 C 
ATOM     24  O   UNL     1      49.306  80.743  40.069  0.00  0.00    -0.245 OA
BRANCH  23  25
ATOM     25  C   UNL     1      49.514  82.174  41.915  0.00  0.00    +0.095 A 
ATOM     26  C   UNL     1      48.739  83.096  42.576  0.00  0.00    +0.016 A 
ATOM     27  C   UNL     1      49.398  84.135  43.232  0.00  0.00    +0.054 A 
ATOM     28  C   UNL     1      50.753  84.241  43.226  0.00  0.00    +0.106 A 
ATOM     29  N   UNL     1      51.498  83.328  42.573  0.00  0.00    -0.242 NA
ATOM     30  C   UNL     1      50.877  82.302  41.923  0.00  0.00    +0.105 A 
ATOM     31 BR   UNL     1      48.394  85.462  44.177  0.00  0.00    -0.047 Br
ENDBRANCH  23  25
ENDBRANCH  22  23
ENDBRANCH  21  22
ENDBRANCH   4  21
TORSDOF 5
