REMARK  Name = Nicorandil
REMARK  5 active torsions:
REMARK  status: ('A' for Active; 'I' for Inactive)
REMARK    1  A    between atoms: C_3  and  C_7
REMARK    2  A    between atoms: N_9  and  C_10
REMARK    3  A    between atoms: C_10  and  C_11
REMARK    4  A    between atoms: C_11  and  O_12
REMARK    5  A    between atoms: O_12  and  N_13
REMARK                            x       y       z     vdW  Elec       q    Type
REMARK                         _______ _______ _______ _____ _____    ______ ____
ROOT
ATOM      1  C   UNL     1      47.456  81.675  40.731  0.00  0.00    +0.266 C 
ATOM      2  O   UNL     1      48.298  82.447  40.135  0.00  0.00    -0.268 OA
ATOM      3  N   UNL     1      47.686  81.305  42.083  0.00  0.00    -0.198 NA
ENDROOT
BRANCH   1   6
ATOM      4  C   UNL     1      44.555  79.745  39.498  0.00  0.00    +0.021 A 
ATOM      5  C   UNL     1      45.645  80.104  40.299  0.00  0.00    +0.008 A 
ATOM      6  C   UNL     1      46.319  81.239  39.952  0.00  0.00    +0.074 A 
ATOM      7  C   UNL     1      45.900  81.976  38.836  0.00  0.00    +0.103 A 
ATOM      8  N   UNL     1      44.845  81.584  38.102  0.00  0.00    -0.242 NA
ATOM      9  C   UNL     1      44.152  80.473  38.408  0.00  0.00    +0.099 A 
ENDBRANCH   1   6
BRANCH   3  10
ATOM     10  C   UNL     1      49.010  81.502  42.606  0.00  0.00    +0.166 C 
BRANCH  10  11
ATOM     11  C   UNL     1      49.457  82.922  42.617  0.00  0.00    +0.266 C 
BRANCH  11  12
ATOM     12  O   UNL     1      48.382  83.717  43.090  0.00  0.00    -0.334 OA
BRANCH  12  13
ATOM     13  N   UNL     1      48.546  84.962  43.624  0.00  0.00    +0.218 N 
ATOM     14  O   UNL     1      47.574  85.689  43.889  0.00  0.00    -0.090 OA
ATOM     15  O   UNL     1      49.814  85.416  43.869  0.00  0.00    -0.090 OA
ENDBRANCH  12  13
ENDBRANCH  11  12
ENDBRANCH  10  11
ENDBRANCH   3  10
TORSDOF 5
