REMARK  Name = Nicotine
REMARK  1 active torsions:
REMARK  status: ('A' for Active; 'I' for Inactive)
REMARK    1  A    between atoms: C_6  and  C_7
REMARK                            x       y       z     vdW  Elec       q    Type
REMARK                         _______ _______ _______ _____ _____    ______ ____
ROOT
ATOM      1  C   UNL     1      43.969  78.655  38.534  0.00  0.00    +0.090 C 
ATOM      2  N   UNL     1      44.160  78.386  39.913  0.00  0.00    -0.269 NA
ATOM      3  C   UNL     1      44.883  77.188  40.230  0.00  0.00    +0.072 C 
ATOM      4  C   UNL     1      45.082  77.377  41.742  0.00  0.00    +0.019 C 
ATOM      5  C   UNL     1      45.571  78.808  41.767  0.00  0.00    +0.022 C 
ATOM      6  C   UNL     1      44.643  79.450  40.725  0.00  0.00    +0.082 C 
ENDROOT
BRANCH   6   7
ATOM      7  C   UNL     1      45.351  80.524  40.033  0.00  0.00    +0.011 A 
ATOM      8  C   UNL     1      44.864  81.070  38.877  0.00  0.00    +0.096 A 
ATOM      9  N   UNL     1      45.500  82.068  38.214  0.00  0.00    -0.243 NA
ATOM     10  C   UNL     1      46.651  82.561  38.681  0.00  0.00    +0.099 A 
ATOM     11  C   UNL     1      47.191  82.050  39.843  0.00  0.00    +0.020 A 
ATOM     12  C   UNL     1      46.535  81.021  40.527  0.00  0.00    +0.000 A 
ENDBRANCH   6   7
TORSDOF 1
