REMARK  Name = Nifedipine
REMARK  6 active torsions:
REMARK  status: ('A' for Active; 'I' for Inactive)
REMARK    1  A    between atoms: C_3  and  C_22
REMARK    2  A    between atoms: C_4  and  C_13
REMARK    3  A    between atoms: C_5  and  C_9
REMARK    4  A    between atoms: C_9  and  O_11
REMARK    5  A    between atoms: C_18  and  N_19
REMARK    6  A    between atoms: C_22  and  O_24
REMARK                            x       y       z     vdW  Elec       q    Type
REMARK                         _______ _______ _______ _____ _____    ______ ____
ROOT
ATOM      1  C   UNL     1      47.572  83.666  37.591  0.00  0.00    +0.049 C 
ATOM      2  C   UNL     1      47.300  82.588  38.608  0.00  0.00    +0.051 C 
ATOM      3  C   UNL     1      48.254  82.305  39.438  0.00  0.00    +0.073 C 
ATOM      4  C   UNL     1      48.064  81.246  40.478  0.00  0.00    +0.083 C 
ATOM      5  C   UNL     1      46.699  80.630  40.417  0.00  0.00    +0.073 C 
ATOM      6  C   UNL     1      45.770  80.956  39.557  0.00  0.00    +0.051 C 
ATOM      7  N   UNL     1      46.036  81.966  38.597  0.00  0.00    -0.221 NA
ATOM      8  C   UNL     1      44.431  80.319  39.526  0.00  0.00    +0.049 C 
ENDROOT
BRANCH   4   9
ATOM      9  C   UNL     1      48.120  81.933  41.817  0.00  0.00    +0.009 A 
ATOM     10  C   UNL     1      47.032  82.703  42.224  0.00  0.00    -0.002 A 
ATOM     11  C   UNL     1      46.957  83.322  43.449  0.00  0.00    -0.000 A 
ATOM     12  C   UNL     1      48.007  83.173  44.315  0.00  0.00    +0.002 A 
ATOM     13  C   UNL     1      49.096  82.425  43.957  0.00  0.00    +0.024 A 
ATOM     14  C   UNL     1      49.163  81.793  42.690  0.00  0.00    +0.140 A 
BRANCH  14  15
ATOM     15  N   UNL     1      50.362  81.127  42.393  0.00  0.00    +0.057 N 
ATOM     16  O   UNL     1      51.414  81.514  43.016  0.00  0.00    -0.126 OA
ATOM     17  O   UNL     1      50.558  80.133  41.519  0.00  0.00    -0.126 OA
ENDBRANCH  14  15
ENDBRANCH   4   9
BRANCH   5  18
ATOM     18  C   UNL     1      46.356  79.604  41.395  0.00  0.00    +0.339 C 
ATOM     19  O   UNL     1      47.097  78.618  41.647  0.00  0.00    -0.245 OA
BRANCH  18  20
ATOM     20  O   UNL     1      45.172  79.629  42.138  0.00  0.00    -0.442 OA
ATOM     21  C   UNL     1      44.796  78.519  42.920  0.00  0.00    +0.256 C 
ENDBRANCH  18  20
ENDBRANCH   5  18
BRANCH   3  22
ATOM     22  C   UNL     1      49.565  82.988  39.420  0.00  0.00    +0.339 C 
ATOM     23  O   UNL     1      50.395  82.663  38.540  0.00  0.00    -0.245 OA
BRANCH  22  24
ATOM     24  O   UNL     1      49.922  83.953  40.309  0.00  0.00    -0.442 OA
ATOM     25  C   UNL     1      51.132  84.699  40.230  0.00  0.00    +0.256 C 
ENDBRANCH  22  24
ENDBRANCH   3  22
TORSDOF 6
