REMARK  Name = Niflumic_Acid
REMARK  4 active torsions:
REMARK  status: ('A' for Active; 'I' for Inactive)
REMARK    1  A    between atoms: C_3  and  C_17
REMARK    2  A    between atoms: C_5  and  N_7
REMARK    3  A    between atoms: N_7  and  C_8
REMARK    4  A    between atoms: C_9  and  C_14
REMARK                            x       y       z     vdW  Elec       q    Type
REMARK                         _______ _______ _______ _____ _____    ______ ____
ROOT
ATOM      1  C   UNL     1      49.985  81.253  42.800  0.00  0.00    +0.001 A 
ATOM      2  C   UNL     1      49.870  82.508  43.348  0.00  0.00    +0.004 A 
ATOM      3  C   UNL     1      48.831  83.340  42.979  0.00  0.00    +0.073 A 
ATOM      4  C   UNL     1      47.928  82.882  42.061  0.00  0.00    +0.020 A 
ATOM      5  C   UNL     1      47.990  81.610  41.464  0.00  0.00    +0.072 A 
ATOM      6  C   UNL     1      49.030  80.829  41.859  0.00  0.00    +0.017 A 
ENDROOT
BRANCH   3   7
ATOM      7  C   UNL     1      48.715  84.701  43.564  0.00  0.00    +0.419 C 
ATOM      8  F   UNL     1      47.774  85.442  42.846  0.00  0.00    -0.166 F 
ATOM      9  F   UNL     1      48.287  84.670  44.870  0.00  0.00    -0.166 F 
ATOM     10  F   UNL     1      49.929  85.346  43.426  0.00  0.00    -0.166 F 
ENDBRANCH   3   7
BRANCH   5  11
ATOM     11  N   UNL     1      47.019  81.244  40.522  0.00  0.00    -0.194 NA
BRANCH  11  12
ATOM     12  C   UNL     1      46.201  80.109  40.531  0.00  0.00    +0.158 A 
ATOM     13  C   UNL     1      45.175  79.879  39.670  0.00  0.00    +0.113 A 
ATOM     14  C   UNL     1      44.408  78.706  39.765  0.00  0.00    +0.011 A 
ATOM     15  C   UNL     1      44.716  77.801  40.742  0.00  0.00    +0.021 A 
ATOM     16  C   UNL     1      45.764  78.033  41.624  0.00  0.00    +0.100 A 
ATOM     17  N   UNL     1      46.453  79.168  41.478  0.00  0.00    -0.227 NA
BRANCH  13  18
ATOM     18  C   UNL     1      44.806  80.815  38.619  0.00  0.00    +0.391 C 
ATOM     19  O   UNL     1      45.286  81.937  38.483  0.00  0.00    -0.240 OA
ATOM     20  O   UNL     1      43.841  80.465  37.663  0.00  0.00    -0.240 OA
ENDBRANCH  13  18
ENDBRANCH  11  12
ENDBRANCH   5  11
TORSDOF 4
