REMARK  Name = Nifurtimox
REMARK  3 active torsions:
REMARK  status: ('A' for Active; 'I' for Inactive)
REMARK    1  A    between atoms: N_9  and  N_10
REMARK    2  A    between atoms: C_11  and  C_12
REMARK    3  A    between atoms: C_15  and  N_17
REMARK                            x       y       z     vdW  Elec       q    Type
REMARK                         _______ _______ _______ _____ _____    ______ ____
ROOT
ATOM      1  N   UNL     1      47.849  81.478  42.181  0.00  0.00    -0.177 NA
ATOM      2  C   UNL     1      46.621  81.751  41.930  0.00  0.00    +0.155 C 
ENDROOT
BRANCH   1  11
ATOM      3  C   UNL     1      50.413  80.824  42.270  0.00  0.00    +0.025 C 
ATOM      4  C   UNL     1      50.101  82.326  42.205  0.00  0.00    +0.115 C 
ATOM      5  C   UNL     1      51.067  83.003  43.106  0.00  0.00    +0.172 C 
ATOM      6  S   UNL     1      50.517  84.595  43.670  0.00  0.00    -0.007 S 
ATOM      7  O   UNL     1      51.536  85.662  43.457  0.00  0.00    -0.173 OA
ATOM      8  O   UNL     1      50.175  84.434  45.144  0.00  0.00    -0.173 OA
ATOM      9  C   UNL     1      49.021  84.896  42.758  0.00  0.00    +0.174 C 
ATOM     10  C   UNL     1      48.140  83.688  43.098  0.00  0.00    +0.136 C 
ATOM     11  N   UNL     1      48.722  82.522  42.502  0.00  0.00    -0.231 N 
ENDBRANCH   1  11
BRANCH   2  12
ATOM     12  C   UNL     1      45.967  81.297  40.684  0.00  0.00    +0.168 A 
ATOM     13  C   UNL     1      46.071  81.931  39.464  0.00  0.00    +0.044 A 
ATOM     14  C   UNL     1      45.310  81.176  38.585  0.00  0.00    +0.066 A 
ATOM     15  C   UNL     1      44.786  80.133  39.295  0.00  0.00    +0.289 A 
ATOM     16  O   UNL     1      45.208  80.261  40.518  0.00  0.00    -0.431 OA
BRANCH  15  17
ATOM     17  N   UNL     1      43.936  79.117  38.747  0.00  0.00    +0.093 N 
ATOM     18  O   UNL     1      43.739  78.045  39.360  0.00  0.00    -0.123 OA
ATOM     19  O   UNL     1      43.319  79.295  37.538  0.00  0.00    -0.123 OA
ENDBRANCH  15  17
ENDBRANCH   2  12
TORSDOF 3
