REMARK  Name = Nifurzide
REMARK  6 active torsions:
REMARK  status: ('A' for Active; 'I' for Inactive)
REMARK    1  A    between atoms: C_2  and  C_9
REMARK    2  A    between atoms: C_4  and  N_6
REMARK    3  A    between atoms: C_10  and  C_11
REMARK    4  A    between atoms: N_12  and  N_13
REMARK    5  A    between atoms: C_14  and  C_16
REMARK    6  A    between atoms: C_19  and  N_21
REMARK                            x       y       z     vdW  Elec       q    Type
REMARK                         _______ _______ _______ _____ _____    ______ ____
ROOT
ATOM      1  C   UNL     1      44.338  80.267  38.839  0.00  0.00    +0.120 C 
ATOM      2  N   UNL     1      45.112  80.012  39.862  0.00  0.00    -0.154 NA
ENDROOT
BRANCH   2   3
ATOM      3  N   UNL     1      46.060  80.928  40.261  0.00  0.00    -0.075 NA
ATOM      4  C   UNL     1      46.972  80.727  41.327  0.00  0.00    +0.292 C 
ATOM      5  O   UNL     1      46.715  79.890  42.215  0.00  0.00    -0.266 OA
BRANCH   4   6
ATOM      6  C   UNL     1      48.240  81.487  41.425  0.00  0.00    +0.088 A 
ATOM      7  C   UNL     1      48.675  82.493  40.605  0.00  0.00    +0.013 A 
ATOM      8  C   UNL     1      49.868  83.043  40.888  0.00  0.00    +0.031 A 
ATOM      9  C   UNL     1      50.545  82.551  41.967  0.00  0.00    +0.173 A 
ATOM     10  S   UNL     1      49.505  81.340  42.559  0.00  0.00    -0.059 S 
BRANCH   9  11
ATOM     11  N   UNL     1      51.825  82.963  42.474  0.00  0.00    +0.064 N 
ATOM     12  O   UNL     1      52.273  82.387  43.471  0.00  0.00    -0.126 OA
ATOM     13  O   UNL     1      52.507  83.968  41.847  0.00  0.00    -0.126 OA
ENDBRANCH   9  11
ENDBRANCH   4   6
ENDBRANCH   2   3
BRANCH   1  15
ATOM     14  C   UNL     1      42.660  78.548  39.130  0.00  0.00    +0.039 C 
ATOM     15  C   UNL     1      43.437  79.260  38.382  0.00  0.00    +0.025 C 
BRANCH  14  17
ATOM     16  C   UNL     1      41.269  77.490  37.312  0.00  0.00    +0.043 A 
ATOM     17  C   UNL     1      41.705  77.595  38.634  0.00  0.00    +0.148 A 
ATOM     18  O   UNL     1      41.084  76.678  39.301  0.00  0.00    -0.433 OA
ATOM     19  C   UNL     1      40.276  75.968  38.563  0.00  0.00    +0.289 A 
ATOM     20  C   UNL     1      40.371  76.461  37.285  0.00  0.00    +0.066 A 
BRANCH  19  21
ATOM     21  N   UNL     1      39.468  74.893  39.037  0.00  0.00    +0.093 N 
ATOM     22  O   UNL     1      38.480  74.510  38.393  0.00  0.00    -0.123 OA
ATOM     23  O   UNL     1      39.825  74.300  40.233  0.00  0.00    -0.123 OA
ENDBRANCH  19  21
ENDBRANCH  14  17
ENDBRANCH   1  15
TORSDOF 6
