REMARK  Name = Nilotinib
REMARK  6 active torsions:
REMARK  status: ('A' for Active; 'I' for Inactive)
REMARK    1  A    between atoms: C_3  and  N_27
REMARK    2  A    between atoms: C_5  and  C_8
REMARK    3  A    between atoms: N_10  and  C_11
REMARK    4  A    between atoms: C_13  and  N_21
REMARK    5  A    between atoms: C_15  and  C_17
REMARK    6  A    between atoms: C_32  and  C_34
REMARK                            x       y       z     vdW  Elec       q    Type
REMARK                         _______ _______ _______ _____ _____    ______ ____
ROOT
ATOM      1  C   UNL     1      47.627  84.817  42.243  0.00  0.00    +0.032 C 
ATOM      2  C   UNL     1      48.593  83.990  42.976  0.00  0.00    -0.006 A 
ATOM      3  C   UNL     1      48.812  82.654  42.602  0.00  0.00    +0.070 A 
ATOM      4  C   UNL     1      49.721  81.892  43.301  0.00  0.00    +0.021 A 
ATOM      5  C   UNL     1      50.444  82.409  44.386  0.00  0.00    +0.057 A 
ATOM      6  C   UNL     1      50.203  83.717  44.722  0.00  0.00    +0.004 A 
ATOM      7  C   UNL     1      49.295  84.504  44.037  0.00  0.00    -0.003 A 
ENDROOT
BRANCH   3   8
ATOM      8  N   UNL     1      48.050  82.195  41.498  0.00  0.00    -0.178 NA
ATOM      9  C   UNL     1      47.295  81.002  41.438  0.00  0.00    +0.241 A 
ATOM     10  N   UNL     1      47.413  79.986  42.282  0.00  0.00    -0.211 NA
ATOM     11  C   UNL     1      46.716  78.850  42.252  0.00  0.00    +0.103 A 
ATOM     12  C   UNL     1      45.768  78.722  41.227  0.00  0.00    +0.040 A 
ATOM     13  C   UNL     1      45.606  79.745  40.327  0.00  0.00    +0.087 A 
ATOM     14  N   UNL     1      46.373  80.851  40.460  0.00  0.00    -0.212 NA
BRANCH  13  15
ATOM     15  C   UNL     1      44.628  79.650  39.243  0.00  0.00    +0.037 A 
ATOM     16  C   UNL     1      44.567  80.683  38.313  0.00  0.00    +0.100 A 
ATOM     17  N   UNL     1      43.695  80.669  37.289  0.00  0.00    -0.242 NA
ATOM     18  C   UNL     1      42.833  79.655  37.105  0.00  0.00    +0.099 A 
ATOM     19  C   UNL     1      42.849  78.606  37.996  0.00  0.00    +0.021 A 
ATOM     20  C   UNL     1      43.754  78.612  39.066  0.00  0.00    +0.005 A 
ENDBRANCH  13  15
ENDBRANCH   3   8
BRANCH   5  21
ATOM     21  C   UNL     1      51.390  81.544  45.079  0.00  0.00    +0.269 C 
ATOM     22  O   UNL     1      52.270  80.929  44.430  0.00  0.00    -0.268 OA
ATOM     23  N   UNL     1      51.365  81.358  46.480  0.00  0.00    -0.175 NA
BRANCH  23  24
ATOM     24  C   UNL     1      52.444  80.726  47.183  0.00  0.00    +0.075 A 
ATOM     25  C   UNL     1      53.339  81.435  47.953  0.00  0.00    +0.034 A 
ATOM     26  C   UNL     1      54.363  80.823  48.618  0.00  0.00    +0.067 A 
ATOM     27  C   UNL     1      54.527  79.458  48.533  0.00  0.00    +0.022 A 
ATOM     28  C   UNL     1      53.653  78.714  47.773  0.00  0.00    +0.074 A 
ATOM     29  C   UNL     1      52.635  79.357  47.116  0.00  0.00    +0.021 A 
BRANCH  26  30
ATOM     30  N   UNL     1      55.295  81.566  49.421  0.00  0.00    -0.287 N 
ATOM     31  C   UNL     1      55.234  82.901  49.660  0.00  0.00    +0.096 A 
ATOM     32  C   UNL     1      56.281  83.288  50.468  0.00  0.00    +0.079 A 
ATOM     33  N   UNL     1      56.980  82.165  50.716  0.00  0.00    -0.228 NA
ATOM     34  C   UNL     1      56.374  81.129  50.077  0.00  0.00    +0.182 A 
ATOM     35  C   UNL     1      56.585  84.667  50.969  0.00  0.00    +0.054 C 
ENDBRANCH  26  30
BRANCH  28  36
ATOM     36  C   UNL     1      53.842  77.246  47.690  0.00  0.00    +0.419 C 
ATOM     37  F   UNL     1      54.954  76.899  48.446  0.00  0.00    -0.166 F 
ATOM     38  F   UNL     1      54.110  76.866  46.390  0.00  0.00    -0.166 F 
ATOM     39  F   UNL     1      52.749  76.588  48.218  0.00  0.00    -0.166 F 
ENDBRANCH  28  36
ENDBRANCH  23  24
ENDBRANCH   5  21
TORSDOF 6
