REMARK  Name = Nilutamide
REMARK  3 active torsions:
REMARK  status: ('A' for Active; 'I' for Inactive)
REMARK    1  A    between atoms: N_5  and  C_9
REMARK    2  A    between atoms: C_11  and  C_18
REMARK    3  A    between atoms: C_12  and  N_15
REMARK                            x       y       z     vdW  Elec       q    Type
REMARK                         _______ _______ _______ _____ _____    ______ ____
ROOT
ATOM      1  C   UNL     1      47.568  81.631  40.648  0.00  0.00    +0.062 A 
ATOM      2  C   UNL     1      47.441  82.494  41.717  0.00  0.00    +0.021 A 
ATOM      3  C   UNL     1      48.551  83.121  42.299  0.00  0.00    +0.095 A 
ATOM      4  C   UNL     1      49.794  82.862  41.784  0.00  0.00    +0.147 A 
ATOM      5  C   UNL     1      49.959  81.986  40.693  0.00  0.00    +0.025 A 
ATOM      6  C   UNL     1      48.837  81.398  40.161  0.00  0.00    +0.017 A 
ENDROOT
BRANCH   1  11
ATOM      7  C   UNL     1      44.859  78.100  39.076  0.00  0.00    +0.031 C 
ATOM      8  C   UNL     1      44.680  79.469  39.741  0.00  0.00    +0.149 C 
ATOM      9  C   UNL     1      45.886  79.763  40.525  0.00  0.00    +0.254 C 
ATOM     10  O   UNL     1      46.351  79.034  41.452  0.00  0.00    -0.272 OA
ATOM     11  N   UNL     1      46.435  81.000  40.065  0.00  0.00    -0.190 N 
ATOM     12  C   UNL     1      45.650  81.442  38.958  0.00  0.00    +0.333 C 
ATOM     13  O   UNL     1      45.854  82.500  38.309  0.00  0.00    -0.250 OA
ATOM     14  N   UNL     1      44.628  80.494  38.735  0.00  0.00    -0.182 NA
ATOM     15  C   UNL     1      43.485  79.470  40.658  0.00  0.00    +0.031 C 
ENDBRANCH   1  11
BRANCH   3  16
ATOM     16  C   UNL     1      48.371  84.016  43.440  0.00  0.00    +0.420 C 
ATOM     17  F   UNL     1      49.135  83.599  44.539  0.00  0.00    -0.166 F 
ATOM     18  F   UNL     1      47.095  84.273  43.818  0.00  0.00    -0.166 F 
ATOM     19  F   UNL     1      48.927  85.265  43.072  0.00  0.00    -0.166 F 
ENDBRANCH   3  16
BRANCH   4  20
ATOM     20  N   UNL     1      50.922  83.502  42.351  0.00  0.00    +0.058 N 
ATOM     21  O   UNL     1      51.987  83.744  41.777  0.00  0.00    -0.126 OA
ATOM     22  O   UNL     1      50.818  83.897  43.671  0.00  0.00    -0.126 OA
ENDBRANCH   4  20
TORSDOF 3
