REMARK  Name = Nimodipine
REMARK  10 active torsions:
REMARK  status: ('A' for Active; 'I' for Inactive)
REMARK    1  A    between atoms: C_3  and  C_24
REMARK    2  A    between atoms: C_4  and  C_15
REMARK    3  A    between atoms: C_5  and  C_9
REMARK    4  A    between atoms: C_9  and  O_11
REMARK    5  A    between atoms: O_11  and  C_12
REMARK    6  A    between atoms: C_17  and  N_21
REMARK    7  A    between atoms: C_24  and  O_26
REMARK    8  A    between atoms: O_26  and  C_27
REMARK    9  A    between atoms: C_27  and  C_28
REMARK   10  A    between atoms: C_28  and  O_29
REMARK                            x       y       z     vdW  Elec       q    Type
REMARK                         _______ _______ _______ _____ _____    ______ ____
ROOT
ATOM      1  C   UNL     1      44.010  80.143  38.910  0.00  0.00    +0.049 C 
ATOM      2  C   UNL     1      45.330  80.770  39.184  0.00  0.00    +0.051 C 
ATOM      3  C   UNL     1      45.956  80.495  40.294  0.00  0.00    +0.073 C 
ATOM      4  C   UNL     1      47.253  81.079  40.620  0.00  0.00    +0.081 C 
ATOM      5  C   UNL     1      47.797  82.004  39.591  0.00  0.00    +0.073 C 
ATOM      6  C   UNL     1      47.138  82.261  38.478  0.00  0.00    +0.051 C 
ATOM      7  N   UNL     1      45.885  81.658  38.232  0.00  0.00    -0.221 NA
ATOM      8  C   UNL     1      47.689  83.189  37.452  0.00  0.00    +0.049 C 
ENDROOT
BRANCH   4   9
ATOM      9  C   UNL     1      47.280  81.705  41.966  0.00  0.00    -0.012 A 
ATOM     10  C   UNL     1      48.319  81.470  42.839  0.00  0.00    +0.020 A 
ATOM     11  C   UNL     1      48.361  82.044  44.095  0.00  0.00    +0.143 A 
ATOM     12  C   UNL     1      47.345  82.879  44.510  0.00  0.00    +0.024 A 
ATOM     13  C   UNL     1      46.289  83.132  43.654  0.00  0.00    +0.001 A 
ATOM     14  C   UNL     1      46.278  82.544  42.408  0.00  0.00    -0.004 A 
BRANCH  11  15
ATOM     15  N   UNL     1      49.461  81.763  44.949  0.00  0.00    +0.058 N 
ATOM     16  O   UNL     1      49.816  82.516  45.862  0.00  0.00    -0.126 OA
ATOM     17  O   UNL     1      50.172  80.603  44.764  0.00  0.00    -0.126 OA
ENDBRANCH  11  15
ENDBRANCH   4   9
BRANCH   5  18
ATOM     18  C   UNL     1      49.097  82.647  39.819  0.00  0.00    +0.339 C 
ATOM     19  O   UNL     1      49.544  83.524  39.031  0.00  0.00    -0.245 OA
BRANCH  18  20
ATOM     20  O   UNL     1      49.888  82.329  40.893  0.00  0.00    -0.449 OA
BRANCH  20  21
ATOM     21  C   UNL     1      51.173  82.819  41.140  0.00  0.00    +0.169 C 
ATOM     22  C   UNL     1      51.858  81.876  42.108  0.00  0.00    +0.047 C 
ATOM     23  C   UNL     1      51.144  84.188  41.831  0.00  0.00    +0.047 C 
ENDBRANCH  20  21
ENDBRANCH  18  20
ENDBRANCH   5  18
BRANCH   3  24
ATOM     24  C   UNL     1      45.361  79.566  41.276  0.00  0.00    +0.339 C 
ATOM     25  O   UNL     1      45.112  79.963  42.454  0.00  0.00    -0.245 OA
BRANCH  24  26
ATOM     26  O   UNL     1      45.049  78.264  40.996  0.00  0.00    -0.443 OA
BRANCH  26  27
ATOM     27  C   UNL     1      45.525  77.104  41.575  0.00  0.00    +0.241 C 
BRANCH  27  28
ATOM     28  C   UNL     1      44.510  76.123  42.059  0.00  0.00    +0.190 C 
BRANCH  28  29
ATOM     29  O   UNL     1      44.977  75.070  42.793  0.00  0.00    -0.347 OA
ATOM     30  C   UNL     1      43.914  74.559  43.536  0.00  0.00    +0.174 C 
ENDBRANCH  28  29
ENDBRANCH  27  28
ENDBRANCH  26  27
ENDBRANCH  24  26
ENDBRANCH   3  24
TORSDOF 10
