REMARK  Name = Nipradilol
REMARK  8 active torsions:
REMARK  status: ('A' for Active; 'I' for Inactive)
REMARK    1  A    between atoms: C_2  and  N_4
REMARK    2  A    between atoms: N_4  and  C_5
REMARK    3  A    between atoms: C_5  and  C_6
REMARK    4  A    between atoms: C_6  and  C_7
REMARK    5  A    between atoms: C_7  and  O_8
REMARK    6  A    between atoms: O_8  and  C_9
REMARK    7  A    between atoms: C_17  and  O_19
REMARK    8  A    between atoms: O_19  and  N_20
REMARK                            x       y       z     vdW  Elec       q    Type
REMARK                         _______ _______ _______ _____ _____    ______ ____
ROOT
ATOM      1  C   UNL     1      45.885  80.819  39.836  0.00  0.00    +0.172 A 
ATOM      2  C   UNL     1      46.067  81.771  38.857  0.00  0.00    +0.040 A 
ATOM      3  C   UNL     1      46.898  82.861  39.013  0.00  0.00    +0.003 A 
ATOM      4  C   UNL     1      47.567  82.988  40.203  0.00  0.00    -0.001 A 
ATOM      5  C   UNL     1      47.407  82.053  41.203  0.00  0.00    +0.019 A 
ATOM      6  C   UNL     1      46.581  80.966  41.052  0.00  0.00    +0.168 A 
ATOM      7  O   UNL     1      46.469  80.078  42.085  0.00  0.00    -0.469 OA
ATOM      8  C   UNL     1      47.525  79.810  43.022  0.00  0.00    +0.252 C 
ATOM      9  C   UNL     1      48.629  80.816  42.907  0.00  0.00    +0.248 C 
ATOM     10  C   UNL     1      48.132  82.184  42.506  0.00  0.00    +0.080 C 
ENDROOT
BRANCH   1  11
ATOM     11  O   UNL     1      45.087  79.734  39.733  0.00  0.00    -0.470 OA
BRANCH  11  12
ATOM     12  C   UNL     1      44.011  79.397  38.961  0.00  0.00    +0.240 C 
BRANCH  12  13
ATOM     13  C   UNL     1      43.411  78.075  39.300  0.00  0.00    +0.213 C 
ATOM     14  O   UNL     1      43.262  77.982  40.707  0.00  0.00    -0.218 OA
BRANCH  13  15
ATOM     15  C   UNL     1      41.969  77.962  38.780  0.00  0.00    +0.125 C 
BRANCH  15  16
ATOM     16  N   UNL     1      41.482  76.680  39.225  0.00  0.00    -0.217 NA
BRANCH  16  18
ATOM     17  C   UNL     1      39.998  76.539  37.363  0.00  0.00    +0.019 C 
ATOM     18  C   UNL     1      40.106  76.449  38.855  0.00  0.00    +0.073 C 
ATOM     19  C   UNL     1      39.580  75.142  39.402  0.00  0.00    +0.019 C 
ENDBRANCH  16  18
ENDBRANCH  15  16
ENDBRANCH  13  15
ENDBRANCH  12  13
ENDBRANCH  11  12
ENDBRANCH   1  11
BRANCH   9  20
ATOM     20  O   UNL     1      49.622  80.428  41.980  0.00  0.00    -0.335 OA
BRANCH  20  21
ATOM     21  N   UNL     1      50.882  80.974  42.017  0.00  0.00    +0.218 N 
ATOM     22  O   UNL     1      51.545  80.896  43.063  0.00  0.00    -0.090 OA
ATOM     23  O   UNL     1      51.350  81.590  40.870  0.00  0.00    -0.090 OA
ENDBRANCH  20  21
ENDBRANCH   9  20
TORSDOF 8
