REMARK  Name = Niraparib_Tosylate
REMARK  4 active torsions:
REMARK  status: ('A' for Active; 'I' for Inactive)
REMARK    1  A    between atoms: C_5  and  S_8
REMARK    2  A    between atoms: C_14  and  C_18
REMARK    3  A    between atoms: C_21  and  N_24
REMARK    4  A    between atoms: C_30  and  C_33
REMARK                            x       y       z     vdW  Elec       q    Type
REMARK                         _______ _______ _______ _____ _____    ______ ____
ROOT
ATOM      1  C   UNL     1      49.416  82.574  42.697  0.00  0.00    +0.031 C 
ATOM      2  C   UNL     1      48.273  82.107  41.879  0.00  0.00    -0.022 A 
ATOM      3  C   UNL     1      48.421  80.931  41.178  0.00  0.00    -0.003 A 
ATOM      4  C   UNL     1      47.366  80.474  40.406  0.00  0.00    +0.021 A 
ATOM      5  C   UNL     1      46.167  81.139  40.303  0.00  0.00    +0.136 A 
ATOM      6  C   UNL     1      46.039  82.316  41.013  0.00  0.00    +0.021 A 
ATOM      7  C   UNL     1      47.082  82.796  41.794  0.00  0.00    -0.003 A 
ENDROOT
BRANCH   5   8
ATOM      8  S   UNL     1      44.889  80.489  39.304  0.00  0.00    +0.141 S 
ATOM      9  O   UNL     1      44.024  81.643  38.856  0.00  0.00    -0.140 OA
ATOM     10  O   UNL     1      45.472  79.825  38.108  0.00  0.00    -0.140 OA
ATOM     11  O   UNL     1      43.902  79.445  40.169  0.00  0.00    -0.043 OA
ENDBRANCH   5   8
TORSDOF 1
REMARK  Name = Niraparib_Tosylate
REMARK  4 active torsions:
REMARK  status: ('A' for Active; 'I' for Inactive)
REMARK    1  A    between atoms: C_5  and  S_8
REMARK    2  A    between atoms: C_14  and  C_18
REMARK    3  A    between atoms: C_21  and  N_24
REMARK    4  A    between atoms: C_30  and  C_33
REMARK                            x       y       z     vdW  Elec       q    Type
REMARK                         _______ _______ _______ _____ _____    ______ ____
ROOT
ATOM      1  C   UNL     1      45.169  80.528  40.184  0.00  0.00    -0.021 A 
ATOM      2  C   UNL     1      45.744  79.992  41.298  0.00  0.00    -0.003 A 
ATOM      3  C   UNL     1      46.962  80.472  41.738  0.00  0.00    +0.019 A 
ATOM      4  C   UNL     1      47.621  81.486  41.082  0.00  0.00    +0.083 A 
ATOM      5  C   UNL     1      47.030  82.024  39.952  0.00  0.00    +0.019 A 
ATOM      6  C   UNL     1      45.813  81.547  39.508  0.00  0.00    -0.003 A 
ENDROOT
BRANCH   4   7
ATOM      7  N   UNL     1      48.883  81.963  41.562  0.00  0.00    -0.228 N 
ATOM      8  C   UNL     1      49.995  81.945  40.806  0.00  0.00    +0.102 A 
ATOM      9  C   UNL     1      50.990  82.477  41.602  0.00  0.00    +0.039 A 
ATOM     10  C   UNL     1      52.326  82.700  41.350  0.00  0.00    +0.003 A 
ATOM     11  C   UNL     1      53.106  83.249  42.328  0.00  0.00    +0.000 A 
ATOM     12  C   UNL     1      52.548  83.575  43.558  0.00  0.00    +0.006 A 
ATOM     13  C   UNL     1      51.215  83.361  43.830  0.00  0.00    +0.076 A 
ATOM     14  C   UNL     1      50.441  82.806  42.835  0.00  0.00    +0.107 A 
ATOM     15  N   UNL     1      49.153  82.469  42.748  0.00  0.00    -0.165 NA
BRANCH  13  16
ATOM     16  C   UNL     1      50.652  83.712  45.132  0.00  0.00    +0.286 C 
ATOM     17  O   UNL     1      50.087  82.816  45.812  0.00  0.00    -0.267 OA
ATOM     18  N   UNL     1      50.719  85.020  45.654  0.00  0.00    -0.084 NA
ENDBRANCH  13  16
ENDBRANCH   4   7
BRANCH   1  21
ATOM     19  C   UNL     1      42.504  77.945  39.735  0.00  0.00    +0.019 C 
ATOM     20  C   UNL     1      43.498  78.811  40.440  0.00  0.00    +0.007 C 
ATOM     21  C   UNL     1      43.842  80.039  39.663  0.00  0.00    +0.040 C 
ATOM     22  C   UNL     1      44.000  79.825  38.197  0.00  0.00    +0.093 C 
ATOM     23  N   UNL     1      43.118  78.863  37.625  0.00  0.00    -0.218 NA
ATOM     24  C   UNL     1      43.091  77.627  38.354  0.00  0.00    +0.089 C 
ENDBRANCH   1  21
TORSDOF 3
