REMARK  Name = Nirogacestat
REMARK  11 active torsions:
REMARK  status: ('A' for Active; 'I' for Inactive)
REMARK    1  A    between atoms: C_2  and  C_3
REMARK    2  A    between atoms: C_3  and  C_4
REMARK    3  A    between atoms: C_4  and  C_5
REMARK    4  A    between atoms: C_4  and  N_23
REMARK    5  A    between atoms: N_7  and  C_8
REMARK    6  A    between atoms: N_10  and  C_13
REMARK    7  A    between atoms: C_13  and  C_16
REMARK    8  A    between atoms: C_16  and  N_17
REMARK    9  A    between atoms: N_17  and  C_18
REMARK   10  A    between atoms: C_18  and  C_19
REMARK   11  A    between atoms: N_23  and  C_24
REMARK                            x       y       z     vdW  Elec       q    Type
REMARK                         _______ _______ _______ _____ _____    ______ ____
ROOT
ATOM      1  C   UNL     1      47.798  81.981  40.895  0.00  0.00    +0.263 C 
ATOM      2  O   UNL     1      47.652  80.843  41.378  0.00  0.00    -0.271 OA
ATOM      3  N   UNL     1      46.962  82.394  39.837  0.00  0.00    -0.158 NA
ENDROOT
BRANCH   3   4
ATOM      4  C   UNL     1      45.907  81.564  39.322  0.00  0.00    +0.173 A 
ATOM      5  C   UNL     1      45.439  80.434  39.977  0.00  0.00    +0.114 A 
ATOM      6  N   UNL     1      44.455  79.870  39.255  0.00  0.00    -0.309 N 
ATOM      7  C   UNL     1      44.309  80.630  38.170  0.00  0.00    +0.180 A 
ATOM      8  N   UNL     1      45.191  81.665  38.204  0.00  0.00    -0.207 NA
BRANCH   6   9
ATOM      9  C   UNL     1      43.715  78.648  39.639  0.00  0.00    +0.086 C 
ATOM     10  C   UNL     1      44.721  77.780  40.362  0.00  0.00    +0.024 C 
ATOM     11  C   UNL     1      42.654  79.084  40.585  0.00  0.00    +0.024 C 
BRANCH   9  12
ATOM     12  C   UNL     1      43.221  77.935  38.433  0.00  0.00    +0.109 C 
BRANCH  12  13
ATOM     13  N   UNL     1      42.002  77.278  38.456  0.00  0.00    -0.216 NA
BRANCH  13  14
ATOM     14  C   UNL     1      40.876  77.721  37.764  0.00  0.00    +0.089 C 
BRANCH  14  15
ATOM     15  C   UNL     1      39.952  76.502  37.562  0.00  0.00    +0.016 C 
ATOM     16  C   UNL     1      40.792  75.330  37.152  0.00  0.00    +0.001 C 
ATOM     17  C   UNL     1      39.242  76.209  38.869  0.00  0.00    +0.001 C 
ATOM     18  C   UNL     1      38.948  76.907  36.505  0.00  0.00    +0.001 C 
ENDBRANCH  14  15
ENDBRANCH  13  14
ENDBRANCH  12  13
ENDBRANCH   9  12
ENDBRANCH   6   9
ENDBRANCH   3   4
BRANCH   1  19
ATOM     19  C   UNL     1      48.836  82.886  41.426  0.00  0.00    +0.151 C 
BRANCH  19  20
ATOM     20  C   UNL     1      48.491  83.401  42.804  0.00  0.00    +0.027 C 
BRANCH  20  22
ATOM     21  C   UNL     1      46.908  85.072  43.780  0.00  0.00    +0.000 C 
ATOM     22  C   UNL     1      48.040  84.826  42.794  0.00  0.00    +0.002 C 
ENDBRANCH  20  22
ENDBRANCH  19  20
BRANCH  19  23
ATOM     23  N   UNL     1      50.089  82.177  41.410  0.00  0.00    -0.211 NA
BRANCH  23  24
ATOM     24  C   UNL     1      51.113  82.912  42.062  0.00  0.00    +0.078 C 
ATOM     25  C   UNL     1      52.423  82.231  42.250  0.00  0.00    +0.022 C 
ATOM     26  C   UNL     1      53.465  83.320  42.556  0.00  0.00    +0.028 C 
ATOM     27  C   UNL     1      52.924  84.276  43.558  0.00  0.00    -0.022 A 
ATOM     28  C   UNL     1      51.640  84.274  43.991  0.00  0.00    +0.003 A 
ATOM     29  C   UNL     1      50.644  83.296  43.492  0.00  0.00    +0.046 C 
ATOM     30  C   UNL     1      51.211  85.192  44.923  0.00  0.00    +0.138 A 
ATOM     31  C   UNL     1      52.079  86.110  45.418  0.00  0.00    +0.059 A 
ATOM     32  C   UNL     1      53.381  86.131  44.995  0.00  0.00    +0.142 A 
ATOM     33  C   UNL     1      53.813  85.208  44.057  0.00  0.00    +0.025 A 
ATOM     34  F   UNL     1      54.224  87.051  45.499  0.00  0.00    -0.204 F 
ATOM     35  F   UNL     1      49.899  85.170  45.348  0.00  0.00    -0.204 F 
ENDBRANCH  23  24
ENDBRANCH  19  23
ENDBRANCH   1  19
TORSDOF 11
