REMARK  Name = Nisoldipine
REMARK  8 active torsions:
REMARK  status: ('A' for Active; 'I' for Inactive)
REMARK    1  A    between atoms: C_3  and  C_25
REMARK    2  A    between atoms: C_4  and  C_16
REMARK    3  A    between atoms: C_5  and  C_9
REMARK    4  A    between atoms: C_9  and  O_11
REMARK    5  A    between atoms: O_11  and  C_12
REMARK    6  A    between atoms: C_12  and  C_13
REMARK    7  A    between atoms: C_21  and  N_22
REMARK    8  A    between atoms: C_25  and  O_27
REMARK                            x       y       z     vdW  Elec       q    Type
REMARK                         _______ _______ _______ _____ _____    ______ ____
ROOT
ATOM      1  C   UNL     1      42.694  80.382  37.387  0.00  0.00    +0.049 C 
ATOM      2  C   UNL     1      43.906  80.508  38.301  0.00  0.00    +0.051 C 
ATOM      3  C   UNL     1      44.299  79.479  38.977  0.00  0.00    +0.073 C 
ATOM      4  C   UNL     1      45.464  79.507  39.886  0.00  0.00    +0.083 C 
ATOM      5  C   UNL     1      46.099  80.799  39.975  0.00  0.00    +0.073 C 
ATOM      6  C   UNL     1      45.680  81.821  39.289  0.00  0.00    +0.051 C 
ATOM      7  N   UNL     1      44.550  81.770  38.388  0.00  0.00    -0.221 NA
ATOM      8  C   UNL     1      46.367  83.181  39.378  0.00  0.00    +0.049 C 
ENDROOT
BRANCH   4   9
ATOM      9  C   UNL     1      45.177  78.808  41.139  0.00  0.00    +0.009 A 
ATOM     10  C   UNL     1      44.244  79.332  42.035  0.00  0.00    -0.002 A 
ATOM     11  C   UNL     1      43.978  78.755  43.258  0.00  0.00    -0.000 A 
ATOM     12  C   UNL     1      44.662  77.613  43.608  0.00  0.00    +0.002 A 
ATOM     13  C   UNL     1      45.580  77.070  42.759  0.00  0.00    +0.024 A 
ATOM     14  C   UNL     1      45.840  77.677  41.505  0.00  0.00    +0.140 A 
BRANCH  14  15
ATOM     15  N   UNL     1      46.792  76.975  40.721  0.00  0.00    +0.057 N 
ATOM     16  O   UNL     1      47.285  75.869  40.918  0.00  0.00    -0.126 OA
ATOM     17  O   UNL     1      47.289  77.618  39.569  0.00  0.00    -0.126 OA
ENDBRANCH  14  15
ENDBRANCH   4   9
BRANCH   5  18
ATOM     18  C   UNL     1      47.255  81.043  40.882  0.00  0.00    +0.339 C 
ATOM     19  O   UNL     1      48.107  80.118  41.124  0.00  0.00    -0.245 OA
BRANCH  18  20
ATOM     20  O   UNL     1      47.530  82.216  41.528  0.00  0.00    -0.446 OA
BRANCH  20  21
ATOM     21  C   UNL     1      48.721  82.477  42.237  0.00  0.00    +0.209 C 
BRANCH  21  22
ATOM     22  C   UNL     1      48.966  83.911  42.559  0.00  0.00    +0.044 C 
ATOM     23  C   UNL     1      47.899  84.515  43.431  0.00  0.00    +0.004 C 
ATOM     24  C   UNL     1      50.264  83.952  43.378  0.00  0.00    +0.004 C 
ENDBRANCH  21  22
ENDBRANCH  20  21
ENDBRANCH  18  20
ENDBRANCH   5  18
BRANCH   3  25
ATOM     25  C   UNL     1      43.563  78.177  38.866  0.00  0.00    +0.339 C 
ATOM     26  O   UNL     1      43.812  77.239  39.691  0.00  0.00    -0.245 OA
BRANCH  25  27
ATOM     27  O   UNL     1      42.618  77.906  37.923  0.00  0.00    -0.442 OA
ATOM     28  C   UNL     1      41.921  76.699  37.819  0.00  0.00    +0.256 C 
ENDBRANCH  25  27
ENDBRANCH   3  25
TORSDOF 8
