REMARK  Name = Nitazoxanide
REMARK  4 active torsions:
REMARK  status: ('A' for Active; 'I' for Inactive)
REMARK    1  A    between atoms: C_2  and  O_4
REMARK    2  A    between atoms: O_4  and  C_5
REMARK    3  A    between atoms: C_10  and  C_11
REMARK    4  A    between atoms: C_17  and  N_19
REMARK                            x       y       z     vdW  Elec       q    Type
REMARK                         _______ _______ _______ _____ _____    ______ ____
ROOT
ATOM      1  C   UNL     1      43.412  78.964  39.191  0.00  0.00    +0.274 C 
ATOM      2  O   UNL     1      43.933  78.964  40.370  0.00  0.00    -0.268 OA
ATOM      3  N   UNL     1      43.961  79.958  38.345  0.00  0.00    -0.150 NA
ATOM      4  C   UNL     1      45.016  80.817  38.803  0.00  0.00    +0.188 A 
ATOM      5  N   UNL     1      45.438  81.930  38.246  0.00  0.00    -0.219 NA
ATOM      6  C   UNL     1      46.409  82.595  38.788  0.00  0.00    +0.132 A 
ATOM      7  C   UNL     1      46.964  82.100  39.939  0.00  0.00    +0.194 A 
ATOM      8  S   UNL     1      46.019  80.673  40.162  0.00  0.00    -0.026 S 
ENDROOT
BRANCH   1  14
ATOM      9  C   UNL     1      41.926  76.972  39.602  0.00  0.00    +0.153 A 
ATOM     10  C   UNL     1      40.931  76.117  39.094  0.00  0.00    +0.038 A 
ATOM     11  C   UNL     1      40.383  76.291  37.846  0.00  0.00    +0.003 A 
ATOM     12  C   UNL     1      40.836  77.340  37.085  0.00  0.00    +0.000 A 
ATOM     13  C   UNL     1      41.802  78.166  37.581  0.00  0.00    +0.008 A 
ATOM     14  C   UNL     1      42.381  78.016  38.850  0.00  0.00    +0.090 A 
BRANCH   9  15
ATOM     15  O   UNL     1      42.425  76.728  40.872  0.00  0.00    -0.424 OA
BRANCH  15  17
ATOM     16  C   UNL     1      44.057  75.508  42.320  0.00  0.00    +0.122 C 
ATOM     17  C   UNL     1      43.362  75.682  41.033  0.00  0.00    +0.322 C 
ATOM     18  O   UNL     1      43.560  74.934  40.048  0.00  0.00    -0.250 OA
ENDBRANCH  15  17
ENDBRANCH   9  15
ENDBRANCH   1  14
BRANCH   7  19
ATOM     19  N   UNL     1      48.029  82.628  40.728  0.00  0.00    +0.066 N 
ATOM     20  O   UNL     1      48.680  83.611  40.349  0.00  0.00    -0.126 OA
ATOM     21  O   UNL     1      48.336  82.040  41.922  0.00  0.00    -0.126 OA
ENDBRANCH   7  19
TORSDOF 4
