REMARK  Name = Nitroglycerin
REMARK  8 active torsions:
REMARK  status: ('A' for Active; 'I' for Inactive)
REMARK    1  A    between atoms: C_1  and  C_2
REMARK    2  A    between atoms: C_1  and  O_12
REMARK    3  A    between atoms: C_2  and  C_3
REMARK    4  A    between atoms: C_2  and  O_8
REMARK    5  A    between atoms: C_3  and  O_4
REMARK    6  A    between atoms: O_4  and  N_5
REMARK    7  A    between atoms: O_8  and  N_9
REMARK    8  A    between atoms: O_12  and  N_13
REMARK                            x       y       z     vdW  Elec       q    Type
REMARK                         _______ _______ _______ _____ _____    ______ ____
ROOT
ATOM      1  C   UNL     1      46.634  80.743  40.860  0.00  0.00    +0.293 C 
ENDROOT
BRANCH   1   2
ATOM      2  C   UNL     1      47.572  80.619  42.054  0.00  0.00    +0.293 C 
BRANCH   2   3
ATOM      3  O   UNL     1      48.914  80.544  41.563  0.00  0.00    -0.332 OA
BRANCH   3   4
ATOM      4  N   UNL     1      49.897  81.281  42.150  0.00  0.00    +0.218 N 
ATOM      5  O   UNL     1      50.876  81.665  41.467  0.00  0.00    -0.090 OA
ATOM      6  O   UNL     1      49.843  81.616  43.477  0.00  0.00    -0.090 OA
ENDBRANCH   3   4
ENDBRANCH   2   3
ENDBRANCH   1   2
BRANCH   1   7
ATOM      7  C   UNL     1      46.420  79.356  40.240  0.00  0.00    +0.293 C 
BRANCH   7   8
ATOM      8  O   UNL     1      45.587  78.579  41.108  0.00  0.00    -0.332 OA
BRANCH   8   9
ATOM      9  N   UNL     1      44.426  78.026  40.656  0.00  0.00    +0.218 N 
ATOM     10  O   UNL     1      43.833  77.203  41.356  0.00  0.00    -0.090 OA
ATOM     11  O   UNL     1      43.934  78.387  39.437  0.00  0.00    -0.090 OA
ENDBRANCH   8   9
ENDBRANCH   7   8
ENDBRANCH   1   7
BRANCH   1  12
ATOM     12  O   UNL     1      47.176  81.635  39.927  0.00  0.00    -0.332 OA
BRANCH  12  13
ATOM     13  N   UNL     1      46.390  82.203  38.954  0.00  0.00    +0.218 N 
ATOM     14  O   UNL     1      46.730  83.257  38.408  0.00  0.00    -0.090 OA
ATOM     15  O   UNL     1      45.234  81.585  38.603  0.00  0.00    -0.090 OA
ENDBRANCH  12  13
ENDBRANCH   1  12
TORSDOF 8
