REMARK  Name = Nitrofurantoin
REMARK  3 active torsions:
REMARK  status: ('A' for Active; 'I' for Inactive)
REMARK    1  A    between atoms: N_7  and  N_8
REMARK    2  A    between atoms: C_9  and  C_10
REMARK    3  A    between atoms: C_13  and  N_15
REMARK                            x       y       z     vdW  Elec       q    Type
REMARK                         _______ _______ _______ _____ _____    ______ ____
ROOT
ATOM      1  N   UNL     1      44.786  80.177  38.892  0.00  0.00    -0.169 NA
ATOM      2  C   UNL     1      44.313  79.225  39.600  0.00  0.00    +0.155 C 
ENDROOT
BRANCH   1   9
ATOM      3  C   UNL     1      46.109  81.129  40.828  0.00  0.00    +0.208 C 
ATOM      4  C   UNL     1      47.289  81.992  40.696  0.00  0.00    +0.272 C 
ATOM      5  O   UNL     1      48.404  81.958  41.283  0.00  0.00    -0.271 OA
ATOM      6  N   UNL     1      46.968  82.979  39.709  0.00  0.00    -0.125 NA
ATOM      7  C   UNL     1      45.864  82.458  38.974  0.00  0.00    +0.349 C 
ATOM      8  O   UNL     1      45.290  83.049  38.005  0.00  0.00    -0.249 OA
ATOM      9  N   UNL     1      45.525  81.180  39.505  0.00  0.00    -0.154 N 
ENDBRANCH   1   9
BRANCH   2  10
ATOM     10  C   UNL     1      43.247  78.334  39.089  0.00  0.00    +0.168 A 
ATOM     11  C   UNL     1      42.669  78.423  37.844  0.00  0.00    +0.044 A 
ATOM     12  C   UNL     1      41.728  77.420  37.761  0.00  0.00    +0.066 A 
ATOM     13  C   UNL     1      41.778  76.751  38.987  0.00  0.00    +0.289 A 
ATOM     14  O   UNL     1      42.690  77.335  39.726  0.00  0.00    -0.431 OA
BRANCH  13  15
ATOM     15  N   UNL     1      40.957  75.641  39.311  0.00  0.00    +0.093 N 
ATOM     16  O   UNL     1      41.161  75.059  40.390  0.00  0.00    -0.123 OA
ATOM     17  O   UNL     1      39.965  75.203  38.482  0.00  0.00    -0.123 OA
ENDBRANCH  13  15
ENDBRANCH   2  10
TORSDOF 3
