REMARK  Name = Nitrendipine
REMARK  7 active torsions:
REMARK  status: ('A' for Active; 'I' for Inactive)
REMARK    1  A    between atoms: C_2  and  O_3
REMARK    2  A    between atoms: O_3  and  C_4
REMARK    3  A    between atoms: C_4  and  C_6
REMARK    4  A    between atoms: C_10  and  C_21
REMARK    5  A    between atoms: C_11  and  C_12
REMARK    6  A    between atoms: C_14  and  N_18
REMARK    7  A    between atoms: C_21  and  O_23
REMARK                            x       y       z     vdW  Elec       q    Type
REMARK                         _______ _______ _______ _____ _____    ______ ____
ROOT
ATOM      1  C   UNL     1      47.907  81.160  39.428  0.00  0.00    +0.073 C 
ATOM      2  C   UNL     1      47.352  81.742  38.404  0.00  0.00    +0.051 C 
ATOM      3  N   UNL     1      45.924  81.707  38.192  0.00  0.00    -0.221 NA
ATOM      4  C   UNL     1      45.162  81.004  39.163  0.00  0.00    +0.051 C 
ATOM      5  C   UNL     1      45.699  80.414  40.198  0.00  0.00    +0.073 C 
ATOM      6  C   UNL     1      47.138  80.439  40.428  0.00  0.00    +0.081 C 
ATOM      7  C   UNL     1      43.664  80.923  39.012  0.00  0.00    +0.049 C 
ATOM      8  C   UNL     1      48.143  82.499  37.353  0.00  0.00    +0.049 C 
ENDROOT
BRANCH   6   9
ATOM      9  C   UNL     1      47.430  80.883  41.818  0.00  0.00    -0.012 A 
ATOM     10  C   UNL     1      47.379  82.224  42.101  0.00  0.00    +0.020 A 
ATOM     11  C   UNL     1      47.636  82.730  43.369  0.00  0.00    +0.143 A 
ATOM     12  C   UNL     1      47.949  81.805  44.343  0.00  0.00    +0.024 A 
ATOM     13  C   UNL     1      47.999  80.457  44.053  0.00  0.00    +0.001 A 
ATOM     14  C   UNL     1      47.743  79.960  42.791  0.00  0.00    -0.004 A 
BRANCH  11  15
ATOM     15  N   UNL     1      47.580  84.122  43.650  0.00  0.00    +0.058 N 
ATOM     16  O   UNL     1      47.997  84.545  44.744  0.00  0.00    -0.126 OA
ATOM     17  O   UNL     1      47.078  85.024  42.754  0.00  0.00    -0.126 OA
ENDBRANCH  11  15
ENDBRANCH   6   9
BRANCH   1  18
ATOM     18  C   UNL     1      49.374  81.251  39.557  0.00  0.00    +0.339 C 
ATOM     19  O   UNL     1      50.013  82.186  38.998  0.00  0.00    -0.245 OA
BRANCH  18  20
ATOM     20  O   UNL     1      50.064  80.334  40.276  0.00  0.00    -0.446 OA
BRANCH  20  22
ATOM     21  C   UNL     1      50.989  78.166  40.295  0.00  0.00    +0.051 C 
ATOM     22  C   UNL     1      51.193  79.619  39.844  0.00  0.00    +0.209 C 
ENDBRANCH  20  22
ENDBRANCH  18  20
ENDBRANCH   1  18
BRANCH   5  23
ATOM     23  C   UNL     1      44.862  79.688  41.188  0.00  0.00    +0.339 C 
ATOM     24  O   UNL     1      43.766  80.218  41.500  0.00  0.00    -0.245 OA
BRANCH  23  25
ATOM     25  O   UNL     1      45.181  78.509  41.778  0.00  0.00    -0.442 OA
ATOM     26  C   UNL     1      44.493  77.917  42.851  0.00  0.00    +0.256 C 
ENDBRANCH  23  25
ENDBRANCH   5  23
TORSDOF 7
