REMARK  Name = NKM
REMARK  8 active torsions:
REMARK  status: ('A' for Active; 'I' for Inactive)
REMARK    1  A    between atoms: O_2  and  C_3
REMARK    2  A    between atoms: C_5  and  N_32
REMARK    3  A    between atoms: C_7  and  C_8
REMARK    4  A    between atoms: C_8  and  C_9
REMARK    5  A    between atoms: C_8  and  O_12
REMARK    6  A    between atoms: O_12  and  C_13
REMARK    7  A    between atoms: C_17  and  C_19
REMARK    8  A    between atoms: N_21  and  C_22
REMARK                            x       y       z     vdW  Elec       q    Type
REMARK                         _______ _______ _______ _____ _____    ______ ____
ROOT
ATOM      1  C   UNL     1      45.374  77.822  40.985  0.00  0.00    +0.227 C 
ENDROOT
BRANCH   1   6
ATOM      2  C   UNL     1      43.244  76.822  41.729  0.00  0.00    +0.180 C 
ATOM      3  C   UNL     1      41.872  76.644  41.052  0.00  0.00    +0.231 C 
ATOM      4  C   UNL     1      41.984  77.743  40.014  0.00  0.00    +0.242 C 
ATOM      5  O   UNL     1      43.312  77.914  39.740  0.00  0.00    -0.330 OA
ATOM      6  C   UNL     1      44.092  77.100  40.516  0.00  0.00    +0.183 C 
ATOM      7  O   UNL     1      40.913  76.885  42.003  0.00  0.00    -0.216 OA
BRANCH   4   8
ATOM      8  N   UNL     1      41.238  77.482  38.826  0.00  0.00    -0.253 N 
ATOM      9  C   UNL     1      41.826  77.251  37.634  0.00  0.00    +0.087 A 
ATOM     10  C   UNL     1      41.063  77.002  36.513  0.00  0.00    +0.081 A 
ATOM     11  C   UNL     1      39.676  76.987  36.594  0.00  0.00    +0.285 A 
ATOM     12  O   UNL     1      38.949  76.763  35.594  0.00  0.00    -0.265 OA
ATOM     13  N   UNL     1      39.129  77.222  37.800  0.00  0.00    -0.153 NA
ATOM     14  C   UNL     1      39.898  77.462  38.877  0.00  0.00    +0.355 A 
ATOM     15  O   UNL     1      39.309  77.672  39.968  0.00  0.00    -0.244 OA
ENDBRANCH   4   8
BRANCH   2  17
ATOM     16  C   UNL     1      44.639  76.025  43.282  0.00  0.00    +0.174 C 
ATOM     17  O   UNL     1      43.598  75.669  42.415  0.00  0.00    -0.348 OA
ENDBRANCH   2  17
ENDBRANCH   1   6
BRANCH   1  18
ATOM     18  C   UNL     1      46.472  76.933  40.600  0.00  0.00    +0.291 C 
ATOM     19  O   UNL     1      46.759  76.916  39.353  0.00  0.00    -0.269 OA
ATOM     20  N   UNL     1      47.245  76.105  41.417  0.00  0.00    -0.086 NA
ENDBRANCH   1  18
BRANCH   1  21
ATOM     21  O   UNL     1      45.344  79.047  40.382  0.00  0.00    -0.309 OA
BRANCH  21  22
ATOM     22  C   UNL     1      46.376  79.356  39.539  0.00  0.00    +0.323 C 
ATOM     23  C   UNL     1      45.787  80.211  38.402  0.00  0.00    +0.256 C 
ATOM     24  C   UNL     1      44.994  81.289  39.082  0.00  0.00    +0.214 C 
ATOM     25  C   UNL     1      45.785  81.943  40.120  0.00  0.00    +0.051 C 
ATOM     26  C   UNL     1      46.864  81.452  40.630  0.00  0.00    +0.194 C 
ATOM     27  O   UNL     1      47.345  80.207  40.184  0.00  0.00    -0.446 OA
ATOM     28  O   UNL     1      44.469  82.204  38.156  0.00  0.00    -0.215 OA
ATOM     29  O   UNL     1      46.867  80.758  37.690  0.00  0.00    -0.213 OA
BRANCH  26  30
ATOM     30  C   UNL     1      47.618  82.164  41.680  0.00  0.00    +0.299 C 
ATOM     31  O   UNL     1      47.063  83.139  42.228  0.00  0.00    -0.265 OA
ATOM     32  N   UNL     1      48.920  81.759  42.054  0.00  0.00    -0.191 NA
BRANCH  32  33
ATOM     33  C   UNL     1      50.009  82.654  42.318  0.00  0.00    +0.173 C 
ATOM     34  C   UNL     1      49.947  83.073  43.770  0.00  0.00    +0.031 C 
ATOM     35  C   UNL     1      50.527  82.003  44.675  0.00  0.00    +0.004 C 
ATOM     36  C   UNL     1      51.860  82.489  45.151  0.00  0.00    +0.024 C 
ATOM     37  C   UNL     1      52.818  82.507  43.992  0.00  0.00    +0.115 C 
ATOM     38  N   UNL     1      52.398  81.790  42.835  0.00  0.00    -0.204 NA
ATOM     39  C   UNL     1      51.315  82.031  41.983  0.00  0.00    +0.261 C 
ATOM     40  O   UNL     1      51.386  81.703  40.756  0.00  0.00    -0.271 OA
ENDBRANCH  32  33
ENDBRANCH  26  30
ENDBRANCH  21  22
ENDBRANCH   1  21
TORSDOF 8
