REMARK  Name = Nomegestrol_acetate
REMARK  3 active torsions:
REMARK  status: ('A' for Active; 'I' for Inactive)
REMARK    1  A    between atoms: C_12  and  C_13
REMARK    2  A    between atoms: C_12  and  O_16
REMARK    3  A    between atoms: O_16  and  C_17
REMARK                            x       y       z     vdW  Elec       q    Type
REMARK                         _______ _______ _______ _____ _____    ______ ____
ROOT
ATOM      1  C   UNL     1      46.215  83.441  37.901  0.00  0.00    +0.030 C 
ATOM      2  C   UNL     1      46.699  82.614  39.046  0.00  0.00    -0.030 C 
ATOM      3  C   UNL     1      47.862  82.848  39.616  0.00  0.00    -0.031 C 
ATOM      4  C   UNL     1      48.302  82.006  40.743  0.00  0.00    +0.022 C 
ATOM      5  C   UNL     1      47.223  81.564  41.673  0.00  0.00    +0.008 C 
ATOM      6  C   UNL     1      47.786  80.449  42.518  0.00  0.00    +0.001 C 
ATOM      7  C   UNL     1      49.275  80.395  42.571  0.00  0.00    +0.004 C 
ATOM      8  C   UNL     1      50.014  81.660  42.446  0.00  0.00    +0.040 C 
ATOM      9  C   UNL     1      49.393  82.682  41.547  0.00  0.00    +0.008 C 
ATOM     10  C   UNL     1      48.920  83.829  42.371  0.00  0.00    +0.004 C 
ATOM     11  C   UNL     1      49.142  83.465  43.823  0.00  0.00    +0.047 C 
ATOM     12  C   UNL     1      50.236  82.447  43.721  0.00  0.00    +0.186 C 
ATOM     13  C   UNL     1      51.407  81.309  41.899  0.00  0.00    +0.004 C 
ATOM     14  C   UNL     1      45.935  81.233  41.014  0.00  0.00    +0.023 C 
ATOM     15  C   UNL     1      45.882  81.525  39.563  0.00  0.00    -0.024 C 
ATOM     16  C   UNL     1      45.108  80.845  38.701  0.00  0.00    +0.033 C 
ATOM     17  C   UNL     1      44.269  79.745  39.168  0.00  0.00    +0.173 C 
ATOM     18  O   UNL     1      43.756  78.898  38.430  0.00  0.00    -0.291 OA
ATOM     19  C   UNL     1      44.067  79.717  40.661  0.00  0.00    +0.069 C 
ATOM     20  C   UNL     1      45.496  79.804  41.221  0.00  0.00    +0.012 C 
ENDROOT
BRANCH  12  21
ATOM     21  C   UNL     1      50.347  81.607  44.917  0.00  0.00    +0.187 C 
ATOM     22  O   UNL     1      51.396  81.021  45.186  0.00  0.00    -0.292 OA
ATOM     23  C   UNL     1      49.238  81.394  45.885  0.00  0.00    +0.076 C 
ENDBRANCH  12  21
BRANCH  12  24
ATOM     24  O   UNL     1      51.459  83.171  43.495  0.00  0.00    -0.449 OA
BRANCH  24  25
ATOM     25  C   UNL     1      52.120  83.208  42.302  0.00  0.00    +0.318 C 
ATOM     26  O   UNL     1      51.530  82.905  41.240  0.00  0.00    -0.250 OA
ATOM     27  C   UNL     1      53.554  83.601  42.173  0.00  0.00    +0.121 C 
ENDBRANCH  24  25
ENDBRANCH  12  24
TORSDOF 3
