REMARK  Name = Nonoxynol-9
REMARK  35 active torsions:
REMARK  status: ('A' for Active; 'I' for Inactive)
REMARK    1  A    between atoms: C_2  and  C_3
REMARK    2  A    between atoms: C_3  and  C_4
REMARK    3  A    between atoms: C_4  and  C_5
REMARK    4  A    between atoms: C_5  and  C_6
REMARK    5  A    between atoms: C_6  and  C_7
REMARK    6  A    between atoms: C_7  and  C_8
REMARK    7  A    between atoms: C_8  and  C_9
REMARK    8  A    between atoms: C_9  and  C_10
REMARK    9  A    between atoms: C_13  and  O_16
REMARK   10  A    between atoms: O_16  and  C_17
REMARK   11  A    between atoms: C_17  and  C_18
REMARK   12  A    between atoms: C_18  and  O_19
REMARK   13  A    between atoms: O_19  and  C_20
REMARK   14  A    between atoms: C_20  and  C_21
REMARK   15  A    between atoms: C_21  and  O_22
REMARK   16  A    between atoms: O_22  and  C_23
REMARK   17  A    between atoms: C_23  and  C_24
REMARK   18  A    between atoms: C_24  and  O_25
REMARK   19  A    between atoms: O_25  and  C_26
REMARK   20  A    between atoms: C_26  and  C_27
REMARK   21  A    between atoms: C_27  and  O_28
REMARK   22  A    between atoms: O_28  and  C_29
REMARK   23  A    between atoms: C_29  and  C_30
REMARK   24  A    between atoms: C_30  and  O_31
REMARK   25  A    between atoms: O_31  and  C_32
REMARK   26  A    between atoms: C_32  and  C_33
REMARK   27  A    between atoms: C_33  and  O_34
REMARK   28  A    between atoms: O_34  and  C_35
REMARK   29  A    between atoms: C_35  and  C_36
REMARK   30  A    between atoms: C_36  and  O_37
REMARK   31  A    between atoms: O_37  and  C_38
REMARK   32  A    between atoms: C_38  and  C_39
REMARK   33  A    between atoms: C_39  and  O_40
REMARK   34  A    between atoms: O_40  and  C_41
REMARK   35  A    between atoms: C_41  and  C_42
REMARK                            x       y       z     vdW  Elec       q    Type
REMARK                         _______ _______ _______ _____ _____    ______ ____
ROOT
ATOM      1  O   UNL     1      53.484  73.972  47.788  0.00  0.00    -0.348 OA
ENDROOT
BRANCH   1   2
ATOM      2  C   UNL     1      53.876  75.292  47.724  0.00  0.00    +0.174 C 
BRANCH   2   3
ATOM      3  C   UNL     1      52.925  76.079  46.803  0.00  0.00    +0.174 C 
BRANCH   3   4
ATOM      4  O   UNL     1      52.219  76.980  47.545  0.00  0.00    -0.347 OA
BRANCH   4   5
ATOM      5  C   UNL     1      52.855  78.076  48.004  0.00  0.00    +0.189 C 
BRANCH   5   6
ATOM      6  C   UNL     1      53.026  79.239  47.072  0.00  0.00    +0.237 C 
BRANCH   6   7
ATOM      7  O   UNL     1      52.308  79.253  45.985  0.00  0.00    -0.473 OA
BRANCH   7  11
ATOM      8  C   UNL     1      49.625  80.993  43.318  0.00  0.00    -0.022 A 
ATOM      9  C   UNL     1      50.974  81.209  43.187  0.00  0.00    -0.001 A 
ATOM     10  C   UNL     1      51.879  80.642  44.056  0.00  0.00    +0.037 A 
ATOM     11  C   UNL     1      51.510  79.822  45.119  0.00  0.00    +0.139 A 
ATOM     12  C   UNL     1      50.105  79.617  45.228  0.00  0.00    +0.037 A 
ATOM     13  C   UNL     1      49.224  80.184  44.361  0.00  0.00    -0.001 A 
BRANCH   8  14
ATOM     14  C   UNL     1      48.638  81.601  42.413  0.00  0.00    +0.026 C 
BRANCH  14  15
ATOM     15  C   UNL     1      49.256  82.629  41.461  0.00  0.00    +0.005 C 
BRANCH  15  16
ATOM     16  C   UNL     1      48.458  82.651  40.207  0.00  0.00    +0.000 C 
BRANCH  16  17
ATOM     17  C   UNL     1      46.941  82.617  40.475  0.00  0.00    +0.000 C 
BRANCH  17  18
ATOM     18  C   UNL     1      46.335  81.513  39.707  0.00  0.00    +0.000 C 
BRANCH  18  19
ATOM     19  C   UNL     1      44.900  81.218  39.803  0.00  0.00    +0.000 C 
BRANCH  19  20
ATOM     20  C   UNL     1      44.354  79.867  39.642  0.00  0.00    +0.000 C 
BRANCH  20  22
ATOM     21  C   UNL     1      42.911  78.109  38.835  0.00  0.00    +0.000 C 
ATOM     22  C   UNL     1      43.308  79.599  38.627  0.00  0.00    +0.000 C 
ENDBRANCH  20  22
ENDBRANCH  19  20
ENDBRANCH  18  19
ENDBRANCH  17  18
ENDBRANCH  16  17
ENDBRANCH  15  16
ENDBRANCH  14  15
ENDBRANCH   8  14
ENDBRANCH   7  11
ENDBRANCH   6   7
ENDBRANCH   5   6
ENDBRANCH   4   5
ENDBRANCH   3   4
ENDBRANCH   2   3
ENDBRANCH   1   2
BRANCH   1  23
ATOM     23  C   UNL     1      54.132  73.169  46.929  0.00  0.00    +0.174 C 
BRANCH  23  24
ATOM     24  C   UNL     1      55.174  72.290  47.585  0.00  0.00    +0.174 C 
BRANCH  24  25
ATOM     25  O   UNL     1      56.443  72.567  47.176  0.00  0.00    -0.348 OA
BRANCH  25  26
ATOM     26  C   UNL     1      56.842  73.858  47.031  0.00  0.00    +0.174 C 
BRANCH  26  27
ATOM     27  C   UNL     1      57.487  74.373  48.310  0.00  0.00    +0.174 C 
BRANCH  27  28
ATOM     28  O   UNL     1      57.855  75.653  48.249  0.00  0.00    -0.348 OA
BRANCH  28  29
ATOM     29  C   UNL     1      57.337  76.621  49.040  0.00  0.00    +0.174 C 
BRANCH  29  30
ATOM     30  C   UNL     1      56.849  76.057  50.344  0.00  0.00    +0.174 C 
BRANCH  30  31
ATOM     31  O   UNL     1      56.102  76.789  51.109  0.00  0.00    -0.348 OA
BRANCH  31  32
ATOM     32  C   UNL     1      55.531  77.952  51.018  0.00  0.00    +0.174 C 
BRANCH  32  33
ATOM     33  C   UNL     1      54.135  78.210  50.596  0.00  0.00    +0.174 C 
BRANCH  33  34
ATOM     34  O   UNL     1      53.716  79.429  51.001  0.00  0.00    -0.348 OA
BRANCH  34  35
ATOM     35  C   UNL     1      52.936  80.183  50.183  0.00  0.00    +0.174 C 
BRANCH  35  36
ATOM     36  C   UNL     1      53.003  79.718  48.739  0.00  0.00    +0.174 C 
BRANCH  36  37
ATOM     37  O   UNL     1      52.347  80.549  47.874  0.00  0.00    -0.348 OA
BRANCH  37  38
ATOM     38  C   UNL     1      52.662  80.442  46.548  0.00  0.00    +0.174 C 
BRANCH  38  39
ATOM     39  C   UNL     1      51.937  81.372  45.626  0.00  0.00    +0.174 C 
BRANCH  39  40
ATOM     40  O   UNL     1      52.086  81.108  44.316  0.00  0.00    -0.348 OA
BRANCH  40  41
ATOM     41  C   UNL     1      50.968  80.964  43.571  0.00  0.00    +0.178 C 
BRANCH  41  42
ATOM     42  C   UNL     1      49.879  81.922  43.897  0.00  0.00    +0.214 C 
ATOM     43  O   UNL     1      48.628  81.621  43.400  0.00  0.00    -0.218 OA
ENDBRANCH  41  42
ENDBRANCH  40  41
ENDBRANCH  39  40
ENDBRANCH  38  39
ENDBRANCH  37  38
ENDBRANCH  36  37
ENDBRANCH  35  36
ENDBRANCH  34  35
ENDBRANCH  33  34
ENDBRANCH  32  33
ENDBRANCH  31  32
ENDBRANCH  30  31
ENDBRANCH  29  30
ENDBRANCH  28  29
ENDBRANCH  27  28
ENDBRANCH  26  27
ENDBRANCH  25  26
ENDBRANCH  24  25
ENDBRANCH  23  24
ENDBRANCH   1  23
TORSDOF 35
