REMARK  Name = Norethindrone
REMARK  1 active torsions:
REMARK  status: ('A' for Active; 'I' for Inactive)
REMARK    1  A    between atoms: C_10  and  C_11
REMARK                            x       y       z     vdW  Elec       q    Type
REMARK                         _______ _______ _______ _____ _____    ______ ____
ROOT
ATOM      1  C   UNL     1      48.553  83.824  43.429  0.00  0.00    +0.003 C 
ATOM      2  C   UNL     1      49.245  82.554  43.096  0.00  0.00    +0.037 C 
ATOM      3  C   UNL     1      48.566  81.332  43.588  0.00  0.00    +0.003 C 
ATOM      4  C   UNL     1      48.109  80.386  42.472  0.00  0.00    +0.000 C 
ATOM      5  C   UNL     1      47.495  81.235  41.396  0.00  0.00    +0.004 C 
ATOM      6  C   UNL     1      48.521  82.108  40.708  0.00  0.00    +0.001 C 
ATOM      7  C   UNL     1      49.605  82.446  41.611  0.00  0.00    +0.003 C 
ATOM      8  C   UNL     1      50.357  83.696  41.385  0.00  0.00    +0.004 C 
ATOM      9  C   UNL     1      51.072  83.922  42.733  0.00  0.00    +0.043 C 
ATOM     10  C   UNL     1      50.717  82.699  43.567  0.00  0.00    +0.180 C 
ATOM     11  O   UNL     1      51.407  81.566  43.136  0.00  0.00    -0.212 OA
ATOM     12  C   UNL     1      47.795  83.230  40.033  0.00  0.00    +0.004 C 
ATOM     13  C   UNL     1      47.020  82.580  38.894  0.00  0.00    +0.022 C 
ATOM     14  C   UNL     1      46.262  81.386  39.337  0.00  0.00    -0.042 C 
ATOM     15  C   UNL     1      45.052  81.249  38.858  0.00  0.00    +0.029 C 
ATOM     16  C   UNL     1      44.246  80.113  39.235  0.00  0.00    +0.173 C 
ATOM     17  O   UNL     1      42.994  80.164  39.167  0.00  0.00    -0.291 OA
ATOM     18  C   UNL     1      44.969  78.884  39.700  0.00  0.00    +0.069 C 
ATOM     19  C   UNL     1      45.876  79.417  40.825  0.00  0.00    +0.012 C 
ATOM     20  C   UNL     1      46.824  80.433  40.297  0.00  0.00    +0.019 C 
ENDROOT
BRANCH  10  21
ATOM     21  C   UNL     1      50.837  82.905  44.977  0.00  0.00    -0.049 C 
ATOM     22  C   UNL     1      50.913  83.070  46.089  0.00  0.00    -0.012 C 
ENDBRANCH  10  21
TORSDOF 1
