REMARK  Name = Norepinephrine
REMARK  2 active torsions:
REMARK  status: ('A' for Active; 'I' for Inactive)
REMARK    1  A    between atoms: C_6  and  C_7
REMARK    2  A    between atoms: C_7  and  C_8
REMARK                            x       y       z     vdW  Elec       q    Type
REMARK                         _______ _______ _______ _____ _____    ______ ____
ROOT
ATOM      1  C   UNL     1      47.209  80.344  41.114  0.00  0.00    +0.002 A 
ATOM      2  C   UNL     1      46.020  79.954  40.568  0.00  0.00    +0.045 A 
ATOM      3  C   UNL     1      45.432  80.731  39.589  0.00  0.00    +0.234 A 
ATOM      4  C   UNL     1      46.066  81.879  39.193  0.00  0.00    +0.234 A 
ATOM      5  C   UNL     1      47.276  82.262  39.759  0.00  0.00    +0.044 A 
ATOM      6  C   UNL     1      47.878  81.501  40.736  0.00  0.00    +0.013 A 
ATOM      7  O   UNL     1      45.457  82.659  38.197  0.00  0.00    -0.283 OA
ATOM      8  O   UNL     1      44.216  80.347  39.018  0.00  0.00    -0.283 OA
ENDROOT
BRANCH   6   9
ATOM      9  C   UNL     1      49.149  81.937  41.304  0.00  0.00    +0.193 C 
ATOM     10  O   UNL     1      49.512  83.227  40.959  0.00  0.00    -0.217 OA
BRANCH   9  11
ATOM     11  C   UNL     1      49.118  81.755  42.816  0.00  0.00    +0.147 C 
ATOM     12  N   UNL     1      50.455  81.717  43.380  0.00  0.00    -0.128 NA
ENDBRANCH   9  11
ENDBRANCH   6   9
TORSDOF 2
