REMARK  Name = Norfloxacin
REMARK  3 active torsions:
REMARK  status: ('A' for Active; 'I' for Inactive)
REMARK    1  A    between atoms: C_2  and  N_3
REMARK    2  A    between atoms: C_5  and  C_21
REMARK    3  A    between atoms: C_11  and  N_14
REMARK                            x       y       z     vdW  Elec       q    Type
REMARK                         _______ _______ _______ _____ _____    ______ ____
ROOT
ATOM      1  N   UNL     1      45.465  79.047  40.959  0.00  0.00    -0.326 N 
ATOM      2  C   UNL     1      46.298  80.113  40.912  0.00  0.00    +0.086 A 
ATOM      3  C   UNL     1      46.189  81.115  39.981  0.00  0.00    +0.136 A 
ATOM      4  C   UNL     1      45.153  80.984  39.057  0.00  0.00    +0.205 A 
ATOM      5  O   UNL     1      44.996  81.871  38.174  0.00  0.00    -0.286 OA
ATOM      6  C   UNL     1      44.296  79.900  39.096  0.00  0.00    +0.057 A 
ATOM      7  C   UNL     1      43.267  79.790  38.165  0.00  0.00    +0.036 A 
ATOM      8  C   UNL     1      42.397  78.716  38.186  0.00  0.00    +0.154 A 
ATOM      9  C   UNL     1      42.549  77.734  39.143  0.00  0.00    +0.077 A 
ATOM     10  C   UNL     1      43.581  77.856  40.066  0.00  0.00    +0.034 A 
ATOM     11  C   UNL     1      44.468  78.930  40.064  0.00  0.00    +0.064 A 
ATOM     12  F   UNL     1      41.385  78.592  37.294  0.00  0.00    -0.203 F 
ENDROOT
BRANCH   9  13
ATOM     13  N   UNL     1      41.672  76.638  39.149  0.00  0.00    -0.303 N 
ATOM     14  C   UNL     1      40.255  76.863  38.940  0.00  0.00    +0.110 C 
ATOM     15  C   UNL     1      39.665  75.713  38.135  0.00  0.00    +0.110 C 
ATOM     16  N   UNL     1      39.848  74.436  38.740  0.00  0.00    -0.214 NA
ATOM     17  C   UNL     1      40.923  74.355  39.663  0.00  0.00    +0.110 C 
ATOM     18  C   UNL     1      42.082  75.282  39.368  0.00  0.00    +0.110 C 
ENDBRANCH   9  13
BRANCH   3  19
ATOM     19  C   UNL     1      47.095  82.258  39.944  0.00  0.00    +0.392 C 
ATOM     20  O   UNL     1      47.943  82.385  40.847  0.00  0.00    -0.240 OA
ATOM     21  O   UNL     1      47.047  83.207  38.941  0.00  0.00    -0.240 OA
ENDBRANCH   3  19
BRANCH   1  23
ATOM     22  C   UNL     1      46.779  77.121  41.511  0.00  0.00    +0.026 C 
ATOM     23  C   UNL     1      45.676  78.044  41.982  0.00  0.00    +0.106 C 
ENDBRANCH   1  23
TORSDOF 3
