REMARK  Name = Norgestimate
REMARK  4 active torsions:
REMARK  status: ('A' for Active; 'I' for Inactive)
REMARK    1  A    between atoms: C_2  and  C_3
REMARK    2  A    between atoms: C_11  and  C_12
REMARK    3  A    between atoms: C_11  and  O_14
REMARK    4  A    between atoms: O_14  and  C_15
REMARK                            x       y       z     vdW  Elec       q    Type
REMARK                         _______ _______ _______ _____ _____    ______ ____
ROOT
ATOM      1  C   UNL     1      48.531  83.058  42.295  0.00  0.00    +0.045 C 
ATOM      2  C   UNL     1      48.625  83.114  40.762  0.00  0.00    +0.004 C 
ATOM      3  C   UNL     1      47.602  82.298  40.095  0.00  0.00    +0.000 C 
ATOM      4  C   UNL     1      46.441  81.801  40.894  0.00  0.00    +0.004 C 
ATOM      5  C   UNL     1      46.796  81.196  42.200  0.00  0.00    +0.001 C 
ATOM      6  C   UNL     1      48.153  81.690  42.610  0.00  0.00    +0.004 C 
ATOM      7  C   UNL     1      48.559  81.434  44.002  0.00  0.00    +0.005 C 
ATOM      8  C   UNL     1      49.767  82.311  44.175  0.00  0.00    +0.053 C 
ATOM      9  C   UNL     1      49.963  83.067  42.878  0.00  0.00    +0.189 C 
ATOM     10  C   UNL     1      46.804  79.692  42.256  0.00  0.00    +0.004 C 
ATOM     11  C   UNL     1      46.901  79.018  40.906  0.00  0.00    +0.022 C 
ATOM     12  C   UNL     1      45.816  79.516  40.072  0.00  0.00    -0.043 C 
ATOM     13  C   UNL     1      44.987  78.771  39.341  0.00  0.00    +0.010 C 
ATOM     14  C   UNL     1      43.957  79.499  38.573  0.00  0.00    +0.101 C 
ATOM     15  N   UNL     1      43.629  79.043  37.423  0.00  0.00    -0.034 NA
ATOM     16  O   UNL     1      42.353  78.630  37.199  0.00  0.00    -0.143 OA
ATOM     17  C   UNL     1      43.315  80.719  39.090  0.00  0.00    +0.050 C 
ATOM     18  C   UNL     1      44.112  81.205  40.287  0.00  0.00    +0.010 C 
ATOM     19  C   UNL     1      45.572  80.969  39.989  0.00  0.00    +0.019 C 
ENDROOT
BRANCH   1  21
ATOM     20  C   UNL     1      46.491  84.266  43.270  0.00  0.00    +0.000 C 
ATOM     21  C   UNL     1      47.870  84.252  42.747  0.00  0.00    +0.004 C 
ENDBRANCH   1  21
BRANCH   9  22
ATOM     22  C   UNL     1      50.463  84.403  43.030  0.00  0.00    -0.040 C 
ATOM     23  C   UNL     1      50.860  85.512  43.162  0.00  0.00    -0.011 C 
ENDBRANCH   9  22
BRANCH   9  24
ATOM     24  O   UNL     1      50.834  82.329  42.056  0.00  0.00    -0.443 OA
BRANCH  24  25
ATOM     25  C   UNL     1      52.111  82.834  41.879  0.00  0.00    +0.318 C 
ATOM     26  O   UNL     1      52.847  83.056  42.873  0.00  0.00    -0.250 OA
ATOM     27  C   UNL     1      52.674  83.136  40.538  0.00  0.00    +0.121 C 
ENDBRANCH  24  25
ENDBRANCH   9  24
TORSDOF 4
