REMARK  Name = Nortriptyline
REMARK  3 active torsions:
REMARK  status: ('A' for Active; 'I' for Inactive)
REMARK    1  A    between atoms: N_2  and  C_3
REMARK    2  A    between atoms: C_3  and  C_4
REMARK    3  A    between atoms: C_4  and  C_5
REMARK                            x       y       z     vdW  Elec       q    Type
REMARK                         _______ _______ _______ _____ _____    ______ ____
ROOT
ATOM      1  C   UNL     1      44.226  79.412  38.081  0.00  0.00    -0.025 C 
ATOM      2  C   UNL     1      44.778  79.480  39.222  0.00  0.00    -0.005 C 
ATOM      3  C   UNL     1      45.579  80.702  39.568  0.00  0.00    -0.004 A 
ATOM      4  C   UNL     1      45.107  81.796  38.911  0.00  0.00    -0.000 A 
ATOM      5  C   UNL     1      45.777  83.009  39.113  0.00  0.00    -0.000 A 
ATOM      6  C   UNL     1      46.870  83.048  39.956  0.00  0.00    -0.000 A 
ATOM      7  C   UNL     1      47.309  81.919  40.598  0.00  0.00    -0.004 A 
ATOM      8  C   UNL     1      46.664  80.682  40.422  0.00  0.00    -0.022 A 
ATOM      9  C   UNL     1      47.320  79.665  41.242  0.00  0.00    +0.031 C 
ATOM     10  C   UNL     1      47.060  78.236  40.952  0.00  0.00    +0.031 C 
ATOM     11  C   UNL     1      45.625  77.828  40.915  0.00  0.00    -0.022 A 
ATOM     12  C   UNL     1      45.289  76.787  41.756  0.00  0.00    -0.004 A 
ATOM     13  C   UNL     1      44.013  76.347  41.826  0.00  0.00    -0.000 A 
ATOM     14  C   UNL     1      43.005  76.922  41.062  0.00  0.00    -0.000 A 
ATOM     15  C   UNL     1      43.277  77.959  40.209  0.00  0.00    -0.000 A 
ATOM     16  C   UNL     1      44.583  78.381  40.160  0.00  0.00    -0.004 A 
ENDROOT
BRANCH   1  17
ATOM     17  C   UNL     1      42.834  79.677  37.681  0.00  0.00    +0.045 C 
BRANCH  17  18
ATOM     18  C   UNL     1      42.184  78.315  37.235  0.00  0.00    +0.093 C 
BRANCH  18  20
ATOM     19  C   UNL     1      40.080  77.166  37.302  0.00  0.00    +0.107 C 
ATOM     20  N   UNL     1      40.853  78.272  37.775  0.00  0.00    -0.216 NA
ENDBRANCH  18  20
ENDBRANCH  17  18
ENDBRANCH   1  17
TORSDOF 3
