REMARK  Name = Novobiocin
REMARK  9 active torsions:
REMARK  status: ('A' for Active; 'I' for Inactive)
REMARK    1  A    between atoms: C_3  and  O_29
REMARK    2  A    between atoms: C_11  and  N_14
REMARK    3  A    between atoms: C_15  and  C_17
REMARK    4  A    between atoms: C_19  and  C_24
REMARK    5  A    between atoms: C_24  and  C_25
REMARK    6  A    between atoms: O_29  and  C_30
REMARK    7  A    between atoms: C_32  and  O_40
REMARK    8  A    between atoms: C_33  and  O_38
REMARK    9  A    between atoms: O_40  and  C_41
REMARK                            x       y       z     vdW  Elec       q    Type
REMARK                         _______ _______ _______ _____ _____    ______ ____
ROOT
ATOM      1  C   UNL     1      47.660  80.209  41.899  0.00  0.00    +0.037 C 
ATOM      2  C   UNL     1      47.067  80.860  40.680  0.00  0.00    +0.047 A 
ATOM      3  C   UNL     1      47.543  82.062  40.213  0.00  0.00    +0.140 A 
ATOM      4  C   UNL     1      46.898  82.565  39.058  0.00  0.00    +0.037 A 
ATOM      5  C   UNL     1      45.881  81.934  38.430  0.00  0.00    +0.009 A 
ATOM      6  C   UNL     1      45.423  80.732  38.917  0.00  0.00    +0.075 A 
ATOM      7  C   UNL     1      46.011  80.196  40.036  0.00  0.00    +0.151 A 
ATOM      8  O   UNL     1      45.583  79.037  40.520  0.00  0.00    -0.420 OA
ATOM      9  C   UNL     1      44.599  78.411  39.926  0.00  0.00    +0.365 A 
ATOM     10  O   UNL     1      44.203  77.304  40.402  0.00  0.00    -0.243 OA
ATOM     11  C   UNL     1      43.957  78.881  38.801  0.00  0.00    +0.188 A 
ATOM     12  C   UNL     1      44.384  80.081  38.281  0.00  0.00    +0.220 A 
ATOM     13  O   UNL     1      43.761  80.586  37.149  0.00  0.00    -0.285 OA
ENDROOT
BRANCH  11  14
ATOM     14  N   UNL     1      42.878  78.144  38.191  0.00  0.00    -0.166 NA
ATOM     15  C   UNL     1      41.525  78.556  38.282  0.00  0.00    +0.269 C 
ATOM     16  O   UNL     1      41.278  79.643  38.858  0.00  0.00    -0.268 OA
BRANCH  15  17
ATOM     17  C   UNL     1      40.413  77.789  37.746  0.00  0.00    +0.055 A 
ATOM     18  C   UNL     1      40.395  76.414  37.689  0.00  0.00    +0.004 A 
ATOM     19  C   UNL     1      39.343  75.676  37.179  0.00  0.00    +0.021 A 
ATOM     20  C   UNL     1      38.247  76.351  36.699  0.00  0.00    +0.192 A 
ATOM     21  C   UNL     1      38.219  77.730  36.734  0.00  0.00    +0.042 A 
ATOM     22  C   UNL     1      39.301  78.440  37.258  0.00  0.00    +0.008 A 
ATOM     23  O   UNL     1      37.167  75.661  36.177  0.00  0.00    -0.287 OA
BRANCH  19  24
ATOM     24  C   UNL     1      39.389  74.174  37.145  0.00  0.00    +0.055 C 
BRANCH  24  25
ATOM     25  C   UNL     1      39.420  73.789  35.715  0.00  0.00    -0.030 C 
ATOM     26  C   UNL     1      39.493  72.517  35.392  0.00  0.00    -0.048 C 
ATOM     27  C   UNL     1      39.694  71.468  36.402  0.00  0.00    +0.026 C 
ATOM     28  C   UNL     1      39.368  72.139  33.959  0.00  0.00    +0.026 C 
ENDBRANCH  24  25
ENDBRANCH  19  24
ENDBRANCH  15  17
ENDBRANCH  11  14
BRANCH   3  29
ATOM     29  O   UNL     1      48.536  82.752  40.765  0.00  0.00    -0.451 OA
BRANCH  29  30
ATOM     30  C   UNL     1      49.117  83.168  41.898  0.00  0.00    +0.323 C 
ATOM     31  C   UNL     1      50.624  82.864  41.949  0.00  0.00    +0.264 C 
ATOM     32  C   UNL     1      51.327  84.076  42.465  0.00  0.00    +0.236 C 
ATOM     33  C   UNL     1      50.686  84.485  43.776  0.00  0.00    +0.183 C 
ATOM     34  C   UNL     1      49.256  84.884  43.469  0.00  0.00    +0.125 C 
ATOM     35  O   UNL     1      48.910  84.544  42.164  0.00  0.00    -0.321 OA
ATOM     36  C   UNL     1      49.027  86.353  43.741  0.00  0.00    +0.032 C 
ATOM     37  C   UNL     1      48.353  84.107  44.394  0.00  0.00    +0.032 C 
ATOM     38  O   UNL     1      50.795  81.731  42.730  0.00  0.00    -0.212 OA
BRANCH  33  39
ATOM     39  O   UNL     1      50.755  83.531  44.757  0.00  0.00    -0.347 OA
ATOM     40  C   UNL     1      51.833  83.730  45.624  0.00  0.00    +0.174 C 
ENDBRANCH  33  39
BRANCH  32  41
ATOM     41  O   UNL     1      52.697  83.789  42.605  0.00  0.00    -0.431 OA
BRANCH  41  42
ATOM     42  C   UNL     1      53.293  82.683  41.974  0.00  0.00    +0.441 C 
ATOM     43  O   UNL     1      53.386  82.743  40.717  0.00  0.00    -0.223 OA
ATOM     44  N   UNL     1      53.769  81.556  42.687  0.00  0.00    -0.048 NA
ENDBRANCH  41  42
ENDBRANCH  32  41
ENDBRANCH  29  30
ENDBRANCH   3  29
TORSDOF 9
