REMARK  Name = Novolimus
REMARK  5 active torsions:
REMARK  status: ('A' for Active; 'I' for Inactive)
REMARK    1  A    between atoms: C_19  and  O_59
REMARK    2  A    between atoms: C_27  and  C_44
REMARK    3  A    between atoms: C_44  and  C_46
REMARK    4  A    between atoms: C_46  and  C_47
REMARK    5  A    between atoms: C_51  and  O_53
REMARK                            x       y       z     vdW  Elec       q    Type
REMARK                         _______ _______ _______ _____ _____    ______ ____
ROOT
ATOM      1  C   UNL     1      51.437  80.250  40.638  0.00  0.00    +0.006 C 
ATOM      2  C   UNL     1      50.537  81.262  41.289  0.00  0.00    +0.062 C 
ATOM      3  C   UNL     1      50.986  81.693  42.638  0.00  0.00    +0.008 C 
ATOM      4  C   UNL     1      50.451  80.869  43.776  0.00  0.00    +0.030 C 
ATOM      5  C   UNL     1      49.862  79.568  43.427  0.00  0.00    +0.121 C 
ATOM      6  C   UNL     1      50.845  78.436  43.623  0.00  0.00    +0.067 C 
ATOM      7  C   UNL     1      51.266  78.190  45.036  0.00  0.00    +0.173 C 
ATOM      8  C   UNL     1      52.731  77.878  45.065  0.00  0.00    -0.014 C 
ATOM      9  C   UNL     1      53.339  76.753  45.167  0.00  0.00    -0.006 C 
ATOM     10  C   UNL     1      52.966  75.375  45.289  0.00  0.00    -0.001 C 
ATOM     11  C   UNL     1      52.129  74.560  44.704  0.00  0.00    -0.000 C 
ATOM     12  C   UNL     1      51.176  74.713  43.642  0.00  0.00    -0.005 C 
ATOM     13  C   UNL     1      49.860  74.795  43.618  0.00  0.00    -0.026 C 
ATOM     14  C   UNL     1      48.889  74.748  44.714  0.00  0.00    +0.022 C 
ATOM     15  C   UNL     1      47.652  73.945  44.334  0.00  0.00    +0.012 C 
ATOM     16  C   UNL     1      47.929  72.806  43.415  0.00  0.00    +0.061 C 
ATOM     17  C   UNL     1      46.732  72.587  42.559  0.00  0.00    +0.180 C 
ATOM     18  O   UNL     1      46.833  72.441  41.339  0.00  0.00    -0.293 OA
ATOM     19  C   UNL     1      45.343  72.525  43.088  0.00  0.00    +0.206 C 
ATOM     20  C   UNL     1      44.400  73.483  42.390  0.00  0.00    +0.204 C 
ATOM     21  C   UNL     1      44.106  74.668  43.232  0.00  0.00    -0.015 C 
ATOM     22  C   UNL     1      44.186  75.933  42.881  0.00  0.00    -0.025 C 
ATOM     23  C   UNL     1      44.586  76.482  41.568  0.00  0.00    +0.079 C 
ATOM     24  C   UNL     1      43.480  76.321  40.551  0.00  0.00    +0.158 C 
ATOM     25  O   UNL     1      42.656  75.465  40.774  0.00  0.00    -0.296 OA
ATOM     26  C   UNL     1      43.497  77.213  39.383  0.00  0.00    +0.108 C 
ATOM     27  C   UNL     1      43.232  78.685  39.752  0.00  0.00    +0.176 C 
ATOM     28  O   UNL     1      44.389  79.366  39.708  0.00  0.00    -0.451 OA
ATOM     29  C   UNL     1      45.190  80.210  40.344  0.00  0.00    +0.335 C 
ATOM     30  O   UNL     1      45.984  79.993  41.332  0.00  0.00    -0.248 OA
ATOM     31  C   UNL     1      45.245  81.642  39.921  0.00  0.00    +0.175 C 
ATOM     32  C   UNL     1      44.300  81.919  38.777  0.00  0.00    +0.031 C 
ATOM     33  C   UNL     1      44.914  83.055  37.991  0.00  0.00    +0.004 C 
ATOM     34  C   UNL     1      45.490  84.115  38.910  0.00  0.00    +0.022 C 
ATOM     35  C   UNL     1      46.695  83.581  39.667  0.00  0.00    +0.094 C 
ATOM     36  N   UNL     1      46.572  82.132  39.656  0.00  0.00    -0.265 N 
ATOM     37  C   UNL     1      47.742  81.385  39.379  0.00  0.00    +0.289 C 
ATOM     38  O   UNL     1      48.281  81.570  38.194  0.00  0.00    -0.267 OA
ATOM     39  C   UNL     1      48.461  80.431  40.196  0.00  0.00    +0.279 C 
ATOM     40  O   UNL     1      48.522  79.234  39.740  0.00  0.00    -0.281 OA
ATOM     41  C   UNL     1      49.142  80.638  41.490  0.00  0.00    +0.279 C 
ATOM     42  O   UNL     1      49.364  79.459  42.142  0.00  0.00    -0.329 OA
ATOM     43  O   UNL     1      48.441  81.574  42.258  0.00  0.00    -0.187 OA
ATOM     44  C   UNL     1      45.825  75.920  40.977  0.00  0.00    +0.012 C 
ATOM     45  C   UNL     1      43.669  74.354  44.645  0.00  0.00    +0.029 C 
ATOM     46  O   UNL     1      43.161  72.803  42.278  0.00  0.00    -0.216 OA
ATOM     47  C   UNL     1      48.159  71.499  44.168  0.00  0.00    +0.008 C 
ATOM     48  C   UNL     1      49.447  74.161  45.991  0.00  0.00    +0.005 C 
ATOM     49  C   UNL     1      53.559  79.158  44.939  0.00  0.00    +0.029 C 
ATOM     50  O   UNL     1      50.524  77.301  45.755  0.00  0.00    -0.219 OA
ENDROOT
BRANCH  27  51
ATOM     51  C   UNL     1      42.099  79.110  38.831  0.00  0.00    +0.041 C 
ATOM     52  C   UNL     1      42.360  80.348  38.069  0.00  0.00    +0.004 C 
BRANCH  51  53
ATOM     53  C   UNL     1      41.668  77.931  38.011  0.00  0.00    +0.004 C 
BRANCH  53  54
ATOM     54  C   UNL     1      40.259  77.484  38.233  0.00  0.00    +0.003 C 
ATOM     55  C   UNL     1      39.512  77.696  36.928  0.00  0.00    +0.003 C 
ATOM     56  C   UNL     1      39.356  76.391  36.163  0.00  0.00    +0.035 C 
ATOM     57  C   UNL     1      38.474  75.415  36.887  0.00  0.00    +0.179 C 
ATOM     58  C   UNL     1      38.715  75.583  38.364  0.00  0.00    +0.146 C 
ATOM     59  C   UNL     1      40.151  76.016  38.566  0.00  0.00    +0.032 C 
ATOM     60  O   UNL     1      38.814  74.100  36.531  0.00  0.00    -0.221 OA
BRANCH  58  61
ATOM     61  O   UNL     1      37.860  76.477  38.968  0.00  0.00    -0.351 OA
ATOM     62  C   UNL     1      37.476  76.029  40.236  0.00  0.00    +0.174 C 
ENDBRANCH  58  61
ENDBRANCH  53  54
ENDBRANCH  51  53
ENDBRANCH  27  51
BRANCH  19  63
ATOM     63  O   UNL     1      44.872  71.242  42.913  0.00  0.00    -0.343 OA
ATOM     64  C   UNL     1      45.859  70.281  43.004  0.00  0.00    +0.175 C 
ENDBRANCH  19  63
TORSDOF 5
