REMARK  Name = Nystatin
REMARK  3 active torsions:
REMARK  status: ('A' for Active; 'I' for Inactive)
REMARK    1  A    between atoms: C_17  and  O_55
REMARK    2  A    between atoms: C_20  and  C_52
REMARK    3  A    between atoms: O_55  and  C_56
REMARK                            x       y       z     vdW  Elec       q    Type
REMARK                         _______ _______ _______ _____ _____    ______ ____
ROOT
ATOM      1  C   UNL     1      51.359  68.909  43.143  0.00  0.00    +0.007 C 
ATOM      2  C   UNL     1      50.708  69.304  44.433  0.00  0.00    +0.053 C 
ATOM      3  C   UNL     1      49.370  68.733  44.663  0.00  0.00    -0.024 C 
ATOM      4  C   UNL     1      48.342  68.666  43.842  0.00  0.00    -0.005 C 
ATOM      5  C   UNL     1      48.267  69.150  42.478  0.00  0.00    -0.005 C 
ATOM      6  C   UNL     1      48.270  70.382  42.031  0.00  0.00    -0.026 C 
ATOM      7  C   UNL     1      48.355  71.556  42.922  0.00  0.00    +0.031 C 
ATOM      8  C   UNL     1      47.584  72.740  42.318  0.00  0.00    +0.031 C 
ATOM      9  C   UNL     1      47.513  73.896  43.222  0.00  0.00    -0.026 C 
ATOM     10  C   UNL     1      47.770  75.147  42.861  0.00  0.00    -0.005 C 
ATOM     11  C   UNL     1      48.159  75.565  41.528  0.00  0.00    -0.000 C 
ATOM     12  C   UNL     1      47.425  75.382  40.423  0.00  0.00    -0.000 C 
ATOM     13  C   UNL     1      46.124  74.739  40.389  0.00  0.00    -0.000 C 
ATOM     14  C   UNL     1      45.031  75.181  41.019  0.00  0.00    -0.000 C 
ATOM     15  C   UNL     1      44.924  76.356  41.834  0.00  0.00    -0.002 C 
ATOM     16  C   UNL     1      45.007  77.623  41.419  0.00  0.00    +0.003 C 
ATOM     17  C   UNL     1      45.226  78.033  40.018  0.00  0.00    +0.142 C 
ATOM     18  C   UNL     1      46.452  78.903  39.858  0.00  0.00    +0.064 C 
ATOM     19  C   UNL     1      46.450  80.056  40.840  0.00  0.00    +0.134 C 
ATOM     20  C   UNL     1      46.859  81.364  40.246  0.00  0.00    +0.161 C 
ATOM     21  C   UNL     1      47.432  82.226  41.374  0.00  0.00    +0.170 C 
ATOM     22  C   UNL     1      48.731  81.564  41.779  0.00  0.00    +0.093 C 
ATOM     23  C   UNL     1      48.575  80.063  41.780  0.00  0.00    +0.224 C 
ATOM     24  O   UNL     1      47.248  79.675  41.915  0.00  0.00    -0.334 OA
ATOM     25  C   UNL     1      49.305  79.529  42.995  0.00  0.00    +0.095 C 
ATOM     26  C   UNL     1      50.591  80.307  43.132  0.00  0.00    +0.187 C 
ATOM     27  C   UNL     1      51.748  79.332  43.213  0.00  0.00    +0.182 C 
ATOM     28  C   UNL     1      52.827  80.004  44.020  0.00  0.00    +0.038 C 
ATOM     29  C   UNL     1      53.940  79.079  44.382  0.00  0.00    +0.036 C 
ATOM     30  C   UNL     1      54.053  78.946  45.900  0.00  0.00    +0.155 C 
ATOM     31  C   UNL     1      55.151  77.943  46.172  0.00  0.00    +0.066 C 
ATOM     32  C   UNL     1      54.915  77.219  47.482  0.00  0.00    +0.157 C 
ATOM     33  C   UNL     1      53.869  76.152  47.267  0.00  0.00    +0.066 C 
ATOM     34  C   UNL     1      54.437  74.941  46.565  0.00  0.00    +0.166 C 
ATOM     35  C   UNL     1      53.340  74.119  45.885  0.00  0.00    +0.142 C 
ATOM     36  C   UNL     1      52.926  72.985  46.732  0.00  0.00    +0.319 C 
ATOM     37  O   UNL     1      52.889  73.232  47.989  0.00  0.00    -0.250 OA
ATOM     38  O   UNL     1      52.588  71.731  46.329  0.00  0.00    -0.452 OA
ATOM     39  C   UNL     1      53.208  70.937  45.368  0.00  0.00    +0.171 C 
ATOM     40  C   UNL     1      52.963  69.461  45.608  0.00  0.00    +0.071 C 
ATOM     41  C   UNL     1      51.559  69.036  45.633  0.00  0.00    +0.159 C 
ATOM     42  O   UNL     1      51.528  67.648  45.861  0.00  0.00    -0.223 OA
ATOM     43  C   UNL     1      53.895  68.638  44.758  0.00  0.00    +0.006 C 
ATOM     44  C   UNL     1      54.732  71.096  45.467  0.00  0.00    +0.047 C 
ATOM     45  O   UNL     1      55.118  74.176  47.520  0.00  0.00    -0.222 OA
ATOM     46  O   UNL     1      56.129  76.678  47.886  0.00  0.00    -0.223 OA
ATOM     47  O   UNL     1      54.373  80.178  46.481  0.00  0.00    -0.223 OA
ATOM     48  O   UNL     1      52.182  79.039  41.913  0.00  0.00    -0.220 OA
ATOM     49  O   UNL     1      50.596  81.079  44.307  0.00  0.00    -0.220 OA
ATOM     50  O   UNL     1      49.183  79.555  40.658  0.00  0.00    -0.195 OA
ATOM     51  O   UNL     1      47.660  83.516  40.905  0.00  0.00    -0.222 OA
ENDROOT
BRANCH  20  52
ATOM     52  C   UNL     1      45.717  82.121  39.700  0.00  0.00    +0.369 C 
ATOM     53  O   UNL     1      45.899  82.970  38.808  0.00  0.00    -0.245 OA
ATOM     54  O   UNL     1      44.439  81.900  40.168  0.00  0.00    -0.245 OA
ENDBRANCH  20  52
BRANCH  17  55
ATOM     55  O   UNL     1      44.103  78.627  39.439  0.00  0.00    -0.327 OA
BRANCH  55  56
ATOM     56  C   UNL     1      42.921  78.041  39.807  0.00  0.00    +0.268 C 
ATOM     57  C   UNL     1      41.781  78.750  39.118  0.00  0.00    +0.228 C 
ATOM     58  C   UNL     1      40.986  77.809  38.207  0.00  0.00    +0.160 C 
ATOM     59  C   UNL     1      40.444  76.724  39.148  0.00  0.00    +0.199 C 
ATOM     60  C   UNL     1      41.648  76.170  39.887  0.00  0.00    +0.150 C 
ATOM     61  O   UNL     1      42.848  76.689  39.366  0.00  0.00    -0.328 OA
ATOM     62  C   UNL     1      41.586  74.678  39.840  0.00  0.00    +0.035 C 
ATOM     63  O   UNL     1      39.828  75.738  38.378  0.00  0.00    -0.219 OA
ATOM     64  N   UNL     1      41.891  77.211  37.225  0.00  0.00    -0.127 NA
ATOM     65  O   UNL     1      42.176  79.826  38.355  0.00  0.00    -0.216 OA
ENDBRANCH  55  56
ENDBRANCH  17  55
TORSDOF 3
