REMARK  Name = obeticholic_acid
REMARK  5 active torsions:
REMARK  status: ('A' for Active; 'I' for Inactive)
REMARK    1  A    between atoms: C_2  and  C_3
REMARK    2  A    between atoms: C_20  and  C_21
REMARK    3  A    between atoms: C_21  and  C_23
REMARK    4  A    between atoms: C_23  and  C_24
REMARK    5  A    between atoms: C_24  and  C_25
REMARK                            x       y       z     vdW  Elec       q    Type
REMARK                         _______ _______ _______ _____ _____    ______ ____
ROOT
ATOM      1  C   UNL     1      43.933  80.091  39.918  0.00  0.00    +0.031 C 
ATOM      2  C   UNL     1      44.040  78.726  40.421  0.00  0.00    +0.005 C 
ATOM      3  C   UNL     1      43.092  77.686  39.880  0.00  0.00    +0.033 C 
ATOM      4  C   UNL     1      42.902  76.623  40.977  0.00  0.00    +0.152 C 
ATOM      5  C   UNL     1      44.013  76.629  41.966  0.00  0.00    +0.033 C 
ATOM      6  C   UNL     1      45.364  76.935  41.415  0.00  0.00    +0.003 C 
ATOM      7  C   UNL     1      45.392  78.094  40.436  0.00  0.00    +0.000 C 
ATOM      8  C   UNL     1      46.461  79.097  40.805  0.00  0.00    +0.002 C 
ATOM      9  C   UNL     1      46.424  79.611  42.180  0.00  0.00    +0.000 C 
ATOM     10  C   UNL     1      46.580  81.140  42.263  0.00  0.00    +0.000 C 
ATOM     11  C   UNL     1      47.770  81.526  41.475  0.00  0.00    +0.000 C 
ATOM     12  C   UNL     1      47.615  81.078  40.013  0.00  0.00    +0.002 C 
ATOM     13  C   UNL     1      46.482  80.163  39.728  0.00  0.00    +0.030 C 
ATOM     14  C   UNL     1      45.191  80.671  39.279  0.00  0.00    +0.152 C 
ATOM     15  O   UNL     1      45.015  82.056  39.337  0.00  0.00    -0.223 OA
ATOM     16  C   UNL     1      47.776  82.273  39.151  0.00  0.00    +0.000 C 
ATOM     17  C   UNL     1      47.711  83.497  40.034  0.00  0.00    +0.000 C 
ATOM     18  C   UNL     1      48.167  82.918  41.350  0.00  0.00    +0.000 C 
ATOM     19  C   UNL     1      48.938  80.754  42.130  0.00  0.00    +0.000 C 
ATOM     20  C   UNL     1      45.802  77.490  39.094  0.00  0.00    +0.000 C 
ATOM     21  O   UNL     1      41.702  76.898  41.673  0.00  0.00    -0.223 OA
ENDROOT
BRANCH   1  23
ATOM     22  C   UNL     1      42.311  79.349  38.090  0.00  0.00    +0.000 C 
ATOM     23  C   UNL     1      42.773  80.403  38.996  0.00  0.00    +0.003 C 
ENDBRANCH   1  23
BRANCH  18  24
ATOM     24  C   UNL     1      48.000  83.916  42.450  0.00  0.00    +0.001 C 
ATOM     25  C   UNL     1      46.702  84.643  42.466  0.00  0.00    +0.000 C 
BRANCH  24  26
ATOM     26  C   UNL     1      49.200  84.695  42.802  0.00  0.00    +0.012 C 
BRANCH  26  27
ATOM     27  C   UNL     1      50.274  84.044  43.614  0.00  0.00    +0.114 C 
BRANCH  27  28
ATOM     28  C   UNL     1      51.407  83.465  42.920  0.00  0.00    +0.365 C 
ATOM     29  O   UNL     1      52.165  82.563  43.355  0.00  0.00    -0.246 OA
ATOM     30  O   UNL     1      51.742  83.916  41.622  0.00  0.00    -0.246 OA
ENDBRANCH  27  28
ENDBRANCH  26  27
ENDBRANCH  24  26
ENDBRANCH  18  24
TORSDOF 5
