REMARK  Name = Octreotide
REMARK  17 active torsions:
REMARK  status: ('A' for Active; 'I' for Inactive)
REMARK    1  A    between atoms: CB_2  and  CA_3
REMARK    2  A    between atoms: CA_7  and  C_62
REMARK    3  A    between atoms: CA_12  and  N_50
REMARK    4  A    between atoms: CA_16  and  CB_43
REMARK    5  A    between atoms: CA_20  and  CB_33
REMARK    6  A    between atoms: CA_24  and  CB_28
REMARK    7  A    between atoms: CB_28  and  CG_29
REMARK    8  A    between atoms: CG_29  and  CD_30
REMARK    9  A    between atoms: CD_30  and  CE_31
REMARK   10  A    between atoms: CB_33  and  CG_34
REMARK   11  A    between atoms: CB_43  and  CG_44
REMARK   12  A    between atoms: C_51  and  CA_53
REMARK   13  A    between atoms: CA_53  and  CB_54
REMARK   14  A    between atoms: CB_54  and  CG_55
REMARK   15  A    between atoms: N_64  and  CA_65
REMARK   16  A    between atoms: CA_65  and  C_66
REMARK   17  A    between atoms: CA_65  and  CB_68
REMARK                            x       y       z     vdW  Elec       q    Type
REMARK                         _______ _______ _______ _____ _____    ______ ____
ROOT
ATOM      1  CA  THR A   6      49.991  77.235  43.855  0.00  0.00    +0.203 C 
ATOM      2  C   THR A   6      48.944  76.341  44.388  0.00  0.00    +0.264 C 
ATOM      3  O   THR A   6      49.077  76.191  45.673  0.00  0.00    -0.271 OA
ATOM      4  N   CYS A   7      47.899  75.671  43.792  0.00  0.00    -0.195 NA
ATOM      5  CA  CYS A   7      47.881  74.638  42.787  0.00  0.00    +0.184 C 
ATOM      6  CB  CYS A   7      46.427  74.321  42.386  0.00  0.00    +0.100 C 
ATOM      7  SG  CYS A   7      46.142  74.446  40.627  0.00  0.00    -0.080 S 
ATOM      8  SG  CYS A   2      45.763  76.435  40.105  0.00  0.00    -0.080 S 
ATOM      9  CB  CYS A   2      44.328  77.162  40.977  0.00  0.00    +0.100 C 
ATOM     10  CA  CYS A   2      43.222  77.286  40.005  0.00  0.00    +0.184 C 
ATOM     11  C   CYS A   2      42.932  78.608  39.435  0.00  0.00    +0.263 C 
ATOM     12  O   CYS A   2      42.389  78.511  38.245  0.00  0.00    -0.271 OA
ATOM     13  N   PHE A   3      43.106  79.895  39.880  0.00  0.00    -0.196 NA
ATOM     14  CA  PHE A   3      44.276  80.713  40.117  0.00  0.00    +0.177 C 
ATOM     15  C   PHE A   3      45.533  80.023  39.818  0.00  0.00    +0.262 C 
ATOM     16  O   PHE A   3      45.453  79.382  38.692  0.00  0.00    -0.271 OA
ATOM     17  N   TRP A   4      46.739  79.944  40.510  0.00  0.00    -0.196 NA
ATOM     18  CA  TRP A   4      47.822  80.870  40.690  0.00  0.00    +0.177 C 
ATOM     19  C   TRP A   4      48.165  81.110  42.110  0.00  0.00    +0.262 C 
ATOM     20  O   TRP A   4      47.501  81.986  42.725  0.00  0.00    -0.271 OA
ATOM     21  N   LYS A   5      49.175  80.442  42.841  0.00  0.00    -0.196 NA
ATOM     22  CA  LYS A   5      50.482  80.070  42.350  0.00  0.00    +0.173 C 
ATOM     23  C   LYS A   5      50.582  78.663  41.910  0.00  0.00    +0.262 C 
ATOM     24  O   LYS A   5      51.359  78.485  40.888  0.00  0.00    -0.271 OA
ATOM     25  N   THR A   6      49.932  77.556  42.482  0.00  0.00    -0.194 NA
ENDROOT
BRANCH   1  27
ATOM     26  CG2 THR A   6      52.470  77.101  43.390  0.00  0.00    +0.038 C 
ATOM     27  CB  THR A   6      51.321  76.501  44.119  0.00  0.00    +0.181 C 
ATOM     28  OG1 THR A   6      51.506  76.500  45.495  0.00  0.00    -0.221 OA
ENDBRANCH   1  27
BRANCH  10  29
ATOM     29  N   CYS A   2      41.993  76.888  40.718  0.00  0.00    -0.196 NA
ATOM     30  C   PHE A   1      40.714  76.941  40.153  0.00  0.00    +0.260 C 
ATOM     31  O   PHE A   1      40.160  78.081  40.071  0.00  0.00    -0.272 OA
BRANCH  30  32
ATOM     32  CA  PHE A   1      40.037  75.737  39.673  0.00  0.00    +0.174 C 
ATOM     33  N   PHE A   1      40.098  75.717  38.206  0.00  0.00    -0.123 NA
BRANCH  32  34
ATOM     34  CB  PHE A   1      38.617  75.577  40.100  0.00  0.00    +0.055 C 
BRANCH  34  35
ATOM     35  CG  PHE A   1      37.976  74.320  39.653  0.00  0.00    -0.020 A 
ATOM     36  CD1 PHE A   1      38.754  73.307  39.082  0.00  0.00    -0.004 A 
ATOM     37  CE1 PHE A   1      38.173  72.129  38.675  0.00  0.00    -0.000 A 
ATOM     38  CZ  PHE A   1      36.807  71.905  38.815  0.00  0.00    -0.000 A 
ATOM     39  CE2 PHE A   1      36.026  72.897  39.377  0.00  0.00    -0.000 A 
ATOM     40  CD2 PHE A   1      36.617  74.074  39.781  0.00  0.00    -0.004 A 
ENDBRANCH  34  35
ENDBRANCH  32  34
ENDBRANCH  30  32
ENDBRANCH  10  29
BRANCH   5  41
ATOM     41  C   CYS A   7      48.391  73.313  43.319  0.00  0.00    +0.262 C 
ATOM     42  O   CYS A   7      48.957  73.358  44.428  0.00  0.00    -0.271 OA
ATOM     43  N   THR A   8      48.237  72.122  42.614  0.00  0.00    -0.200 NA
BRANCH  43  44
ATOM     44  CA  THR A   8      48.662  70.808  42.985  0.00  0.00    +0.158 C 
BRANCH  44  45
ATOM     45  CB  THR A   8      47.971  69.709  42.227  0.00  0.00    +0.174 C 
ATOM     46  CG2 THR A   8      48.237  68.341  42.767  0.00  0.00    +0.037 C 
ATOM     47  OG1 THR A   8      46.583  69.913  42.301  0.00  0.00    -0.221 OA
ENDBRANCH  44  45
BRANCH  44  48
ATOM     48  C   THR A   8      50.130  70.551  43.053  0.00  0.00    +0.206 C 
ATOM     49  O   THR A   8      50.585  69.745  44.067  0.00  0.00    -0.218 OA
ENDBRANCH  44  48
ENDBRANCH  43  44
ENDBRANCH   5  41
BRANCH  18  50
ATOM     50  CB  TRP A   4      47.702  82.157  39.911  0.00  0.00    +0.059 C 
BRANCH  50  51
ATOM     51  CG  TRP A   4      46.675  82.055  38.852  0.00  0.00    +0.001 A 
ATOM     52  CD1 TRP A   4      46.164  83.031  38.042  0.00  0.00    +0.095 A 
ATOM     53  NE1 TRP A   4      45.236  82.482  37.202  0.00  0.00    -0.244 NA
ATOM     54  CE2 TRP A   4      45.155  81.161  37.474  0.00  0.00    +0.081 A 
ATOM     55  CZ2 TRP A   4      44.386  80.157  36.928  0.00  0.00    +0.019 A 
ATOM     56  CH2 TRP A   4      44.493  78.853  37.396  0.00  0.00    +0.002 A 
ATOM     57  CZ3 TRP A   4      45.363  78.572  38.399  0.00  0.00    +0.000 A 
ATOM     58  CE3 TRP A   4      46.124  79.582  38.935  0.00  0.00    +0.001 A 
ATOM     59  CD2 TRP A   4      46.041  80.884  38.494  0.00  0.00    +0.015 A 
ENDBRANCH  50  51
ENDBRANCH  18  50
BRANCH  14  60
ATOM     60  CB  PHE A   3      44.178  81.363  41.463  0.00  0.00    +0.057 C 
BRANCH  60  61
ATOM     61  CG  PHE A   3      45.537  81.782  41.949  0.00  0.00    -0.020 A 
ATOM     62  CD1 PHE A   3      46.584  80.881  42.026  0.00  0.00    -0.004 A 
ATOM     63  CE1 PHE A   3      47.837  81.251  42.481  0.00  0.00    -0.000 A 
ATOM     64  CZ  PHE A   3      48.081  82.544  42.875  0.00  0.00    -0.000 A 
ATOM     65  CE2 PHE A   3      47.047  83.467  42.806  0.00  0.00    -0.000 A 
ATOM     66  CD2 PHE A   3      45.811  83.075  42.351  0.00  0.00    -0.004 A 
ENDBRANCH  60  61
ENDBRANCH  14  60
BRANCH  22  67
ATOM     67  CB  LYS A   5      51.563  80.447  43.373  0.00  0.00    +0.031 C 
BRANCH  67  68
ATOM     68  CG  LYS A   5      51.785  81.962  43.335  0.00  0.00    +0.004 C 
BRANCH  68  69
ATOM     69  CD  LYS A   5      50.480  82.706  43.382  0.00  0.00    +0.021 C 
BRANCH  69  70
ATOM     70  CE  LYS A   5      50.460  83.883  44.303  0.00  0.00    +0.109 C 
ATOM     71  NZ  LYS A   5      49.108  84.440  44.240  0.00  0.00    -0.131 NA
ENDBRANCH  69  70
ENDBRANCH  68  69
ENDBRANCH  67  68
ENDBRANCH  22  67
TORSDOF 17
