REMARK  Name = Odevixibat
REMARK  17 active torsions:
REMARK  status: ('A' for Active; 'I' for Inactive)
REMARK    1  A    between atoms: C_2  and  C_3
REMARK    2  A    between atoms: C_3  and  C_4
REMARK    3  A    between atoms: C_4  and  C_5
REMARK    4  A    between atoms: C_5  and  C_48
REMARK    5  A    between atoms: N_7  and  C_42
REMARK    6  A    between atoms: C_10  and  S_40
REMARK    7  A    between atoms: C_11  and  O_18
REMARK    8  A    between atoms: O_18  and  C_19
REMARK    9  A    between atoms: C_19  and  C_20
REMARK   10  A    between atoms: N_22  and  CA_23
REMARK   11  A    between atoms: CA_23  and  C_24
REMARK   12  A    between atoms: CA_23  and  C_31
REMARK   13  A    between atoms: N_33  and  CA_34
REMARK   14  A    between atoms: CA_34  and  C_35
REMARK   15  A    between atoms: CA_34  and  C_37
REMARK   16  A    between atoms: C_48  and  C_49
REMARK   17  A    between atoms: C_49  and  C_50
REMARK                            x       y       z     vdW  Elec       q    Type
REMARK                         _______ _______ _______ _____ _____    ______ ____
ROOT
ATOM      1  C   UNL     1      47.956  82.335  41.388  0.00  0.00    +0.101 C 
ATOM      2  C   UNL     1      48.699  81.062  41.232  0.00  0.00    +0.113 C 
ATOM      3  N   UNL     1      48.010  79.818  41.395  0.00  0.00    -0.284 N 
ATOM      4  C   UNL     1      46.683  79.533  40.920  0.00  0.00    +0.071 A 
ATOM      5  C   UNL     1      46.070  78.459  41.494  0.00  0.00    +0.025 A 
ATOM      6  C   UNL     1      44.794  78.067  41.127  0.00  0.00    +0.061 A 
ATOM      7  C   UNL     1      44.123  78.784  40.151  0.00  0.00    +0.146 A 
ATOM      8  C   UNL     1      44.699  79.853  39.556  0.00  0.00    +0.059 A 
ATOM      9  C   UNL     1      45.980  80.226  39.946  0.00  0.00    +0.140 A 
ATOM     10  S   UNL     1      46.593  81.664  39.151  0.00  0.00    +0.078 S 
ATOM     11  O   UNL     1      45.498  82.255  38.343  0.00  0.00    -0.152 OA
ATOM     12  O   UNL     1      47.694  81.222  38.236  0.00  0.00    -0.152 OA
ATOM     13  N   UNL     1      47.058  82.737  40.350  0.00  0.00    -0.079 NA
ENDROOT
BRANCH   3  14
ATOM     14  C   UNL     1      48.653  78.711  42.030  0.00  0.00    +0.052 A 
ATOM     15  C   UNL     1      48.845  77.582  41.235  0.00  0.00    +0.015 A 
ATOM     16  C   UNL     1      49.481  76.521  41.819  0.00  0.00    +0.001 A 
ATOM     17  C   UNL     1      49.912  76.562  43.123  0.00  0.00    +0.000 A 
ATOM     18  C   UNL     1      49.720  77.685  43.910  0.00  0.00    +0.001 A 
ATOM     19  C   UNL     1      49.075  78.770  43.333  0.00  0.00    +0.015 A 
ENDBRANCH   3  14
BRANCH   6  20
ATOM     20  S   UNL     1      44.046  76.626  41.915  0.00  0.00    -0.110 S 
ATOM     21  C   UNL     1      45.243  75.252  41.931  0.00  0.00    +0.074 C 
ENDBRANCH   6  20
BRANCH   7  22
ATOM     22  O   UNL     1      42.830  78.299  39.874  0.00  0.00    -0.465 OA
BRANCH  22  23
ATOM     23  C   UNL     1      42.050  78.194  38.909  0.00  0.00    +0.291 C 
BRANCH  23  24
ATOM     24  C   UNL     1      41.165  78.075  37.819  0.00  0.00    +0.287 C 
ATOM     25  O   UNL     1      41.503  78.160  36.588  0.00  0.00    -0.269 OA
ATOM     26  N   UNL     1      39.739  77.844  37.988  0.00  0.00    -0.190 NA
BRANCH  26  27
ATOM     27  CA  UNL     1      38.960  76.981  37.155  0.00  0.00    +0.195 C 
BRANCH  27  28
ATOM     28  C   UNL     1      37.594  77.646  37.102  0.00  0.00    +0.006 A 
ATOM     29  C   UNL     1      37.189  78.310  35.936  0.00  0.00    +0.001 A 
ATOM     30  C   UNL     1      35.943  78.882  35.862  0.00  0.00    +0.042 A 
ATOM     31  C   UNL     1      35.053  78.825  36.917  0.00  0.00    +0.196 A 
ATOM     32  C   UNL     1      35.450  78.172  38.066  0.00  0.00    +0.042 A 
ATOM     33  C   UNL     1      36.723  77.588  38.141  0.00  0.00    +0.001 A 
ATOM     34  O   UNL     1      33.787  79.412  36.817  0.00  0.00    -0.287 OA
ENDBRANCH  27  28
BRANCH  27  35
ATOM     35  C   UNL     1      38.856  75.588  37.535  0.00  0.00    +0.266 C 
ATOM     36  O   UNL     1      38.272  74.795  36.736  0.00  0.00    -0.271 OA
ATOM     37  N   UNL     1      39.352  75.009  38.729  0.00  0.00    -0.194 NA
BRANCH  37  38
ATOM     38  CA  UNL     1      39.324  73.564  38.899  0.00  0.00    +0.198 C 
BRANCH  38  39
ATOM     39  C   UNL     1      40.605  72.932  38.482  0.00  0.00    +0.384 C 
ATOM     40  O   UNL     1      40.775  71.700  38.442  0.00  0.00    -0.244 OA
ATOM     41  OXT UNL     1      41.691  73.733  38.110  0.00  0.00    -0.244 OA
ENDBRANCH  38  39
BRANCH  38  42
ATOM     42  C   UNL     1      38.986  73.234  40.321  0.00  0.00    +0.033 C 
ATOM     43  C   UNL     1      37.925  74.156  40.825  0.00  0.00    +0.002 C 
ENDBRANCH  38  42
ENDBRANCH  37  38
ENDBRANCH  27  35
ENDBRANCH  26  27
ENDBRANCH  23  24
ENDBRANCH  22  23
ENDBRANCH   7  22
BRANCH   1  44
ATOM     44  C   UNL     1      47.216  82.289  42.695  0.00  0.00    +0.020 C 
BRANCH  44  45
ATOM     45  C   UNL     1      47.011  83.620  43.343  0.00  0.00    +0.002 C 
BRANCH  45  47
ATOM     46  C   UNL     1      48.500  85.508  43.673  0.00  0.00    +0.000 C 
ATOM     47  C   UNL     1      47.710  84.761  42.584  0.00  0.00    +0.000 C 
ENDBRANCH  45  47
ENDBRANCH  44  45
ENDBRANCH   1  44
BRANCH   1  48
ATOM     48  C   UNL     1      49.004  83.420  41.426  0.00  0.00    +0.020 C 
BRANCH  48  49
ATOM     49  C   UNL     1      50.404  83.163  41.199  0.00  0.00    +0.002 C 
BRANCH  49  50
ATOM     50  C   UNL     1      50.957  82.001  40.504  0.00  0.00    +0.000 C 
ATOM     51  C   UNL     1      52.503  81.955  40.736  0.00  0.00    +0.000 C 
ENDBRANCH  49  50
ENDBRANCH  48  49
ENDBRANCH   1  48
TORSDOF 17
