REMARK  Name = Oestradiol_valerate_and_dienogest
REMARK  2 active torsions:
REMARK  status: ('A' for Active; 'I' for Inactive)
REMARK    1  A    between atoms: C_19  and  C_20
REMARK    2  A    between atoms: C_20  and  C_21
REMARK                            x       y       z     vdW  Elec       q    Type
REMARK                         _______ _______ _______ _____ _____    ______ ____
ROOT
ATOM      1  C   UNL     1      48.316  83.681  44.197  0.00  0.00    +0.002 C 
ATOM      2  C   UNL     1      49.026  82.975  43.095  0.00  0.00    +0.027 C 
ATOM      3  C   UNL     1      48.777  81.516  43.118  0.00  0.00    +0.007 C 
ATOM      4  C   UNL     1      47.302  81.276  42.783  0.00  0.00    +0.022 C 
ATOM      5  C   UNL     1      47.112  81.775  41.387  0.00  0.00    -0.049 C 
ATOM      6  C   UNL     1      46.595  80.992  40.494  0.00  0.00    -0.033 C 
ATOM      7  C   UNL     1      46.139  79.581  40.704  0.00  0.00    +0.034 C 
ATOM      8  C   UNL     1      44.650  79.619  40.292  0.00  0.00    +0.074 C 
ATOM      9  C   UNL     1      44.579  80.011  38.866  0.00  0.00    +0.173 C 
ATOM     10  O   UNL     1      43.737  79.430  38.148  0.00  0.00    -0.291 OA
ATOM     11  C   UNL     1      45.462  81.034  38.344  0.00  0.00    +0.033 C 
ATOM     12  C   UNL     1      46.426  81.503  39.122  0.00  0.00    -0.024 C 
ATOM     13  C   UNL     1      47.382  82.539  38.671  0.00  0.00    +0.026 C 
ATOM     14  C   UNL     1      47.365  83.628  39.708  0.00  0.00    +0.009 C 
ATOM     15  C   UNL     1      47.495  83.181  41.117  0.00  0.00    +0.018 C 
ATOM     16  C   UNL     1      48.779  83.618  41.762  0.00  0.00    +0.006 C 
ATOM     17  C   UNL     1      50.015  83.416  40.969  0.00  0.00    +0.003 C 
ATOM     18  C   UNL     1      51.067  82.851  41.932  0.00  0.00    +0.032 C 
ATOM     19  C   UNL     1      50.528  83.240  43.264  0.00  0.00    +0.141 C 
ATOM     20  O   UNL     1      50.774  84.567  43.508  0.00  0.00    -0.225 OA
ENDROOT
BRANCH  19  21
ATOM     21  C   UNL     1      51.106  82.422  44.397  0.00  0.00    +0.136 C 
BRANCH  21  22
ATOM     22  C   UNL     1      51.430  81.109  43.843  0.00  0.00    +0.076 C 
ATOM     23  N   UNL     1      51.674  80.062  43.418  0.00  0.00    -0.196 NA
ENDBRANCH  21  22
ENDBRANCH  19  21
TORSDOF 2
