REMARK  Name = Ofloxacin
REMARK  2 active torsions:
REMARK  status: ('A' for Active; 'I' for Inactive)
REMARK    1  A    between atoms: C_9  and  C_24
REMARK    2  A    between atoms: C_15  and  N_16
REMARK                            x       y       z     vdW  Elec       q    Type
REMARK                         _______ _______ _______ _____ _____    ______ ____
ROOT
ATOM      1  C   UNL     1      46.047  78.541  42.964  0.00  0.00    +0.028 C 
ATOM      2  C   UNL     1      45.627  77.868  41.651  0.00  0.00    +0.129 C 
ATOM      3  C   UNL     1      44.470  76.948  41.879  0.00  0.00    +0.228 C 
ATOM      4  O   UNL     1      43.693  76.764  40.707  0.00  0.00    -0.471 OA
ATOM      5  C   UNL     1      43.492  77.799  39.823  0.00  0.00    +0.170 A 
ATOM      6  C   UNL     1      44.352  78.874  39.843  0.00  0.00    +0.099 A 
ATOM      7  N   UNL     1      45.365  78.907  40.710  0.00  0.00    -0.321 N 
ATOM      8  C   UNL     1      46.193  79.966  40.713  0.00  0.00    +0.086 A 
ATOM      9  C   UNL     1      46.012  81.014  39.837  0.00  0.00    +0.136 A 
ATOM     10  C   UNL     1      44.970  80.983  38.942  0.00  0.00    +0.205 A 
ATOM     11  O   UNL     1      44.757  81.914  38.118  0.00  0.00    -0.286 OA
ATOM     12  C   UNL     1      44.125  79.910  38.935  0.00  0.00    +0.060 A 
ATOM     13  C   UNL     1      43.069  79.846  38.051  0.00  0.00    +0.036 A 
ATOM     14  C   UNL     1      42.208  78.763  38.036  0.00  0.00    +0.157 A 
ATOM     15  C   UNL     1      42.423  77.740  38.924  0.00  0.00    +0.112 A 
ATOM     16  F   UNL     1      41.162  78.657  37.189  0.00  0.00    -0.203 F 
ENDROOT
BRANCH  15  17
ATOM     17  N   UNL     1      41.589  76.624  38.955  0.00  0.00    -0.301 N 
ATOM     18  C   UNL     1      42.078  75.353  38.400  0.00  0.00    +0.108 C 
ATOM     19  C   UNL     1      41.078  74.968  37.325  0.00  0.00    +0.094 C 
ATOM     20  N   UNL     1      39.826  74.692  37.995  0.00  0.00    -0.269 NA
ATOM     21  C   UNL     1      39.279  75.823  38.675  0.00  0.00    +0.094 C 
ATOM     22  C   UNL     1      40.250  76.597  39.495  0.00  0.00    +0.108 C 
ATOM     23  C   UNL     1      38.867  74.157  37.064  0.00  0.00    +0.090 C 
ENDBRANCH  15  17
BRANCH   9  24
ATOM     24  C   UNL     1      46.895  82.175  39.818  0.00  0.00    +0.392 C 
ATOM     25  O   UNL     1      47.750  82.308  40.720  0.00  0.00    -0.240 OA
ATOM     26  O   UNL     1      46.821  83.134  38.838  0.00  0.00    -0.240 OA
ENDBRANCH   9  24
TORSDOF 2
