REMARK  Name = Olanzapine
REMARK  0 active torsions:
REMARK  status: ('A' for Active; 'I' for Inactive)
REMARK                            x       y       z     vdW  Elec       q    Type
REMARK                         _______ _______ _______ _____ _____    ______ ____
ROOT
ATOM      1  C   UNL     1      43.528  75.078  42.790  0.00  0.00    +0.038 C 
ATOM      2  C   UNL     1      44.079  76.374  42.242  0.00  0.00    +0.009 A 
ATOM      3  C   UNL     1      43.682  77.034  41.106  0.00  0.00    +0.007 A 
ATOM      4  C   UNL     1      44.315  78.178  40.806  0.00  0.00    +0.053 A 
ATOM      5  C   UNL     1      45.301  78.591  41.656  0.00  0.00    +0.102 A 
ATOM      6  S   UNL     1      45.320  77.373  42.850  0.00  0.00    -0.075 S 
ATOM      7  N   UNL     1      46.161  79.751  41.623  0.00  0.00    -0.204 NA
ATOM      8  C   UNL     1      46.384  80.670  40.555  0.00  0.00    +0.089 A 
ATOM      9  C   UNL     1      47.458  81.483  40.776  0.00  0.00    +0.018 A 
ATOM     10  C   UNL     1      47.761  82.409  39.797  0.00  0.00    +0.001 A 
ATOM     11  C   UNL     1      47.023  82.523  38.639  0.00  0.00    +0.002 A 
ATOM     12  C   UNL     1      45.947  81.674  38.469  0.00  0.00    +0.020 A 
ATOM     13  C   UNL     1      45.615  80.739  39.422  0.00  0.00    +0.098 A 
ATOM     14  N   UNL     1      44.481  79.974  39.055  0.00  0.00    -0.229 NA
ATOM     15  C   UNL     1      43.924  78.935  39.585  0.00  0.00    +0.133 C 
ATOM     16  N   UNL     1      42.784  78.479  38.881  0.00  0.00    -0.290 N 
ATOM     17  C   UNL     1      42.047  77.352  39.365  0.00  0.00    +0.109 C 
ATOM     18  C   UNL     1      40.580  77.560  39.165  0.00  0.00    +0.094 C 
ATOM     19  N   UNL     1      40.239  78.022  37.849  0.00  0.00    -0.269 NA
ATOM     20  C   UNL     1      40.903  79.268  37.511  0.00  0.00    +0.094 C 
ATOM     21  C   UNL     1      42.384  79.163  37.685  0.00  0.00    +0.109 C 
ATOM     22  C   UNL     1      40.441  77.044  36.823  0.00  0.00    +0.090 C 
ENDROOT
TORSDOF 0
