REMARK  Name = Olanzapine/fluoxetine_combination
REMARK  8 active torsions:
REMARK  status: ('A' for Active; 'I' for Inactive)
REMARK    1  A    between atoms: C_5  and  N_16
REMARK    2  A    between atoms: N_24  and  C_25
REMARK    3  A    between atoms: C_25  and  C_26
REMARK    4  A    between atoms: C_26  and  C_27
REMARK    5  A    between atoms: C_27  and  C_28
REMARK    6  A    between atoms: C_27  and  O_34
REMARK    7  A    between atoms: O_34  and  C_35
REMARK    8  A    between atoms: C_38  and  C_41
REMARK                            x       y       z     vdW  Elec       q    Type
REMARK                         _______ _______ _______ _____ _____    ______ ____
ROOT
ATOM      1  C   UNL     1      47.609  81.378  42.235  0.00  0.00    +0.038 C 
ATOM      2  C   UNL     1      46.538  80.904  41.277  0.00  0.00    +0.009 A 
ATOM      3  C   UNL     1      45.890  79.705  41.311  0.00  0.00    +0.007 A 
ATOM      4  C   UNL     1      44.950  79.469  40.350  0.00  0.00    +0.053 A 
ATOM      5  C   UNL     1      44.291  78.275  40.367  0.00  0.00    +0.123 C 
ATOM      6  N   UNL     1      43.287  77.792  39.495  0.00  0.00    -0.196 NA
ATOM      7  C   UNL     1      42.705  78.435  38.371  0.00  0.00    +0.089 A 
ATOM      8  C   UNL     1      41.744  77.695  37.723  0.00  0.00    +0.018 A 
ATOM      9  C   UNL     1      41.080  78.188  36.602  0.00  0.00    +0.001 A 
ATOM     10  C   UNL     1      41.411  79.460  36.142  0.00  0.00    +0.002 A 
ATOM     11  C   UNL     1      42.372  80.221  36.775  0.00  0.00    +0.020 A 
ATOM     12  C   UNL     1      43.001  79.681  37.886  0.00  0.00    +0.097 A 
ATOM     13  N   UNL     1      43.943  80.575  38.409  0.00  0.00    -0.237 NA
ATOM     14  C   UNL     1      44.752  80.471  39.442  0.00  0.00    +0.113 A 
ATOM     15  S   UNL     1      45.856  81.690  39.939  0.00  0.00    -0.072 S 
ENDROOT
BRANCH   5  16
ATOM     16  N   UNL     1      44.630  77.347  41.394  0.00  0.00    -0.292 N 
ATOM     17  C   UNL     1      45.745  76.417  41.263  0.00  0.00    +0.109 C 
ATOM     18  C   UNL     1      45.213  75.008  41.532  0.00  0.00    +0.094 C 
ATOM     19  N   UNL     1      44.522  74.949  42.784  0.00  0.00    -0.269 NA
ATOM     20  C   UNL     1      44.500  76.198  43.497  0.00  0.00    +0.094 C 
ATOM     21  C   UNL     1      43.880  77.270  42.642  0.00  0.00    +0.109 C 
ATOM     22  C   UNL     1      45.038  73.891  43.644  0.00  0.00    +0.090 C 
ENDBRANCH   5  16
TORSDOF 1
REMARK  Name = Olanzapine/fluoxetine_combination
REMARK  8 active torsions:
REMARK  status: ('A' for Active; 'I' for Inactive)
REMARK    1  A    between atoms: C_5  and  N_16
REMARK    2  A    between atoms: N_24  and  C_25
REMARK    3  A    between atoms: C_25  and  C_26
REMARK    4  A    between atoms: C_26  and  C_27
REMARK    5  A    between atoms: C_27  and  C_28
REMARK    6  A    between atoms: C_27  and  O_34
REMARK    7  A    between atoms: O_34  and  C_35
REMARK    8  A    between atoms: C_38  and  C_41
REMARK                            x       y       z     vdW  Elec       q    Type
REMARK                         _______ _______ _______ _____ _____    ______ ____
ROOT
ATOM      1  C   UNL     1      44.165  78.452  39.831  0.00  0.00    +0.190 C 
ENDROOT
BRANCH   1   2
ATOM      2  C   UNL     1      45.120  79.576  39.843  0.00  0.00    +0.017 A 
ATOM      3  C   UNL     1      45.812  79.734  41.052  0.00  0.00    -0.001 A 
ATOM      4  C   UNL     1      46.752  80.724  41.195  0.00  0.00    -0.000 A 
ATOM      5  C   UNL     1      47.016  81.569  40.140  0.00  0.00    -0.000 A 
ATOM      6  C   UNL     1      46.326  81.394  38.968  0.00  0.00    -0.000 A 
ATOM      7  C   UNL     1      45.370  80.401  38.795  0.00  0.00    -0.001 A 
ENDBRANCH   1   2
BRANCH   1   8
ATOM      8  C   UNL     1      43.162  78.425  38.749  0.00  0.00    +0.067 C 
BRANCH   8   9
ATOM      9  C   UNL     1      42.209  79.595  38.718  0.00  0.00    +0.093 C 
BRANCH   9  11
ATOM     10  C   UNL     1      40.469  78.637  39.970  0.00  0.00    +0.107 C 
ATOM     11  N   UNL     1      41.405  79.718  39.914  0.00  0.00    -0.216 NA
ENDBRANCH   9  11
ENDBRANCH   8   9
ENDBRANCH   1   8
BRANCH   1  12
ATOM     12  O   UNL     1      44.908  77.274  39.872  0.00  0.00    -0.475 OA
BRANCH  12  13
ATOM     13  C   UNL     1      45.067  76.357  40.836  0.00  0.00    +0.139 A 
ATOM     14  C   UNL     1      44.465  76.415  42.050  0.00  0.00    +0.037 A 
ATOM     15  C   UNL     1      44.684  75.416  43.007  0.00  0.00    +0.007 A 
ATOM     16  C   UNL     1      45.520  74.338  42.748  0.00  0.00    +0.072 A 
ATOM     17  C   UNL     1      46.114  74.296  41.525  0.00  0.00    +0.007 A 
ATOM     18  C   UNL     1      45.909  75.271  40.572  0.00  0.00    +0.037 A 
BRANCH  16  19
ATOM     19  C   UNL     1      45.759  73.275  43.753  0.00  0.00    +0.419 C 
ATOM     20  F   UNL     1      44.559  72.792  44.236  0.00  0.00    -0.166 F 
ATOM     21  F   UNL     1      46.491  72.258  43.200  0.00  0.00    -0.166 F 
ATOM     22  F   UNL     1      46.487  73.795  44.807  0.00  0.00    -0.166 F 
ENDBRANCH  16  19
ENDBRANCH  12  13
ENDBRANCH   1  12
TORSDOF 7
REMARK  Name = Olanzapine/fluoxetine_combination
REMARK  8 active torsions:
REMARK  status: ('A' for Active; 'I' for Inactive)
REMARK    1  A    between atoms: C_5  and  N_16
REMARK    2  A    between atoms: N_24  and  C_25
REMARK    3  A    between atoms: C_25  and  C_26
REMARK    4  A    between atoms: C_26  and  C_27
REMARK    5  A    between atoms: C_27  and  C_28
REMARK    6  A    between atoms: C_27  and  O_34
REMARK    7  A    between atoms: O_34  and  C_35
REMARK    8  A    between atoms: C_38  and  C_41
REMARK                            x       y       z     vdW  Elec       q    Type
REMARK                         _______ _______ _______ _____ _____    ______ ____
ROOT
ATOM      1 CL   UNL     1      44.537  77.356  41.098  0.00  0.00    +0.000 Cl
ENDROOT
TORSDOF 0
