REMARK  Name = Olaparib
REMARK  4 active torsions:
REMARK  status: ('A' for Active; 'I' for Inactive)
REMARK    1  A    between atoms: C_3  and  C_4
REMARK    2  A    between atoms: C_12  and  C_14
REMARK    3  A    between atoms: C_18  and  C_20
REMARK    4  A    between atoms: C_20  and  C_21
REMARK                            x       y       z     vdW  Elec       q    Type
REMARK                         _______ _______ _______ _____ _____    ______ ____
ROOT
ATOM      1  C   UNL     1      42.741  76.502  40.101  0.00  0.00    +0.081 A 
ATOM      2  C   UNL     1      43.289  75.249  40.048  0.00  0.00    +0.144 A 
ATOM      3  C   UNL     1      44.573  75.073  40.561  0.00  0.00    +0.029 A 
ATOM      4  C   UNL     1      45.266  76.127  41.103  0.00  0.00    -0.002 A 
ATOM      5  C   UNL     1      44.717  77.408  41.163  0.00  0.00    -0.016 A 
ATOM      6  C   UNL     1      43.452  77.532  40.646  0.00  0.00    +0.003 A 
ATOM      7  F   UNL     1      42.599  74.201  39.508  0.00  0.00    -0.204 F 
ENDROOT
BRANCH   1  16
ATOM      8  C   UNL     1      39.257  73.638  35.493  0.00  0.00    +0.225 C 
ATOM      9  O   UNL     1      38.184  74.011  34.888  0.00  0.00    -0.275 OA
ATOM     10  N   UNL     1      39.733  74.474  36.505  0.00  0.00    -0.276 N 
ATOM     11  C   UNL     1      40.128  73.944  37.781  0.00  0.00    +0.115 C 
ATOM     12  C   UNL     1      41.392  74.718  38.203  0.00  0.00    +0.115 C 
ATOM     13  N   UNL     1      40.924  76.049  38.476  0.00  0.00    -0.273 N 
ATOM     14  C   UNL     1      39.956  76.653  37.602  0.00  0.00    +0.115 C 
ATOM     15  C   UNL     1      39.836  75.924  36.285  0.00  0.00    +0.115 C 
ATOM     16  C   UNL     1      41.409  76.753  39.588  0.00  0.00    +0.251 C 
ATOM     17  O   UNL     1      40.730  77.635  40.205  0.00  0.00    -0.270 OA
BRANCH   8  20
ATOM     18  C   UNL     1      41.137  72.502  34.208  0.00  0.00    +0.010 C 
ATOM     19  C   UNL     1      39.840  71.944  33.644  0.00  0.00    +0.010 C 
ATOM     20  C   UNL     1      39.861  72.378  35.058  0.00  0.00    +0.077 C 
ENDBRANCH   8  20
ENDBRANCH   1  16
BRANCH   5  21
ATOM     21  C   UNL     1      45.486  78.524  41.780  0.00  0.00    +0.074 C 
BRANCH  21  22
ATOM     22  C   UNL     1      45.639  79.615  40.830  0.00  0.00    +0.085 A 
ATOM     23  N   UNL     1      44.812  79.622  39.741  0.00  0.00    -0.149 NA
ATOM     24  N   UNL     1      44.837  80.574  38.840  0.00  0.00    -0.106 NA
ATOM     25  C   UNL     1      45.675  81.624  38.904  0.00  0.00    +0.297 A 
ATOM     26  O   UNL     1      45.655  82.516  38.004  0.00  0.00    -0.264 OA
ATOM     27  C   UNL     1      46.547  81.698  39.970  0.00  0.00    +0.061 A 
ATOM     28  C   UNL     1      47.425  82.742  40.069  0.00  0.00    +0.005 A 
ATOM     29  C   UNL     1      48.304  82.818  41.117  0.00  0.00    +0.000 A 
ATOM     30  C   UNL     1      48.256  81.795  42.054  0.00  0.00    +0.000 A 
ATOM     31  C   UNL     1      47.370  80.745  41.951  0.00  0.00    +0.001 A 
ATOM     32  C   UNL     1      46.498  80.675  40.911  0.00  0.00    +0.020 A 
ENDBRANCH  21  22
ENDBRANCH   5  21
TORSDOF 4
