REMARK  Name = Oliceridine
REMARK  7 active torsions:
REMARK  status: ('A' for Active; 'I' for Inactive)
REMARK    1  A    between atoms: O_2  and  C_3
REMARK    2  A    between atoms: C_4  and  C_8
REMARK    3  A    between atoms: C_8  and  N_9
REMARK    4  A    between atoms: N_9  and  C_10
REMARK    5  A    between atoms: C_10  and  C_11
REMARK    6  A    between atoms: C_11  and  C_12
REMARK    7  A    between atoms: C_12  and  C_22
REMARK                            x       y       z     vdW  Elec       q    Type
REMARK                         _______ _______ _______ _____ _____    ______ ____
ROOT
ATOM      1  C   UNL     1      45.076  79.465  40.081  0.00  0.00    +0.041 C 
ATOM      2  C   UNL     1      44.263  80.686  40.272  0.00  0.00    +0.038 C 
ATOM      3  C   UNL     1      43.728  81.297  39.011  0.00  0.00    +0.142 C 
ATOM      4  O   UNL     1      43.500  80.432  37.989  0.00  0.00    -0.359 OA
ATOM      5  C   UNL     1      43.402  79.107  38.327  0.00  0.00    +0.093 C 
ATOM      6  C   UNL     1      44.732  78.658  38.871  0.00  0.00    +0.033 C 
ATOM      7  C   UNL     1      43.050  78.313  37.081  0.00  0.00    +0.027 C 
ATOM      8  C   UNL     1      42.177  77.173  37.607  0.00  0.00    +0.002 C 
ATOM      9  C   UNL     1      41.308  77.906  38.593  0.00  0.00    +0.002 C 
ATOM     10  C   UNL     1      42.269  78.878  39.288  0.00  0.00    +0.027 C 
ENDROOT
BRANCH   1  11
ATOM     11  C   UNL     1      44.933  78.555  41.273  0.00  0.00    +0.058 A 
ATOM     12  C   UNL     1      45.685  77.405  41.389  0.00  0.00    +0.015 A 
ATOM     13  C   UNL     1      45.527  76.587  42.502  0.00  0.00    +0.003 A 
ATOM     14  C   UNL     1      44.622  76.924  43.485  0.00  0.00    +0.021 A 
ATOM     15  C   UNL     1      43.885  78.076  43.346  0.00  0.00    +0.098 A 
ATOM     16  N   UNL     1      44.070  78.830  42.262  0.00  0.00    -0.248 NA
ENDBRANCH   1  11
BRANCH   1  17
ATOM     17  C   UNL     1      46.557  79.867  40.083  0.00  0.00    +0.025 C 
BRANCH  17  18
ATOM     18  C   UNL     1      46.793  81.106  40.875  0.00  0.00    +0.089 C 
BRANCH  18  19
ATOM     19  N   UNL     1      48.176  81.490  40.763  0.00  0.00    -0.213 NA
BRANCH  19  20
ATOM     20  C   UNL     1      48.413  82.887  40.964  0.00  0.00    +0.124 C 
BRANCH  20  22
ATOM     21  C   UNL     1      49.623  83.908  43.000  0.00  0.00    +0.143 A 
ATOM     22  C   UNL     1      49.516  82.978  41.996  0.00  0.00    +0.059 A 
ATOM     23  S   UNL     1      50.897  82.011  42.217  0.00  0.00    -0.086 S 
ATOM     24  C   UNL     1      51.576  82.796  43.565  0.00  0.00    +0.038 A 
ATOM     25  C   UNL     1      50.689  83.811  43.809  0.00  0.00    +0.044 A 
BRANCH  21  27
ATOM     26  C   UNL     1      48.505  85.701  44.297  0.00  0.00    +0.252 C 
ATOM     27  O   UNL     1      48.624  84.914  43.143  0.00  0.00    -0.471 OA
ENDBRANCH  21  27
ENDBRANCH  20  22
ENDBRANCH  19  20
ENDBRANCH  18  19
ENDBRANCH  17  18
ENDBRANCH   1  17
TORSDOF 7
