REMARK  Name = Olmesartan_medoxomil
REMARK  11 active torsions:
REMARK  status: ('A' for Active; 'I' for Inactive)
REMARK    1  A    between atoms: C_2  and  C_3
REMARK    2  A    between atoms: C_3  and  C_4
REMARK    3  A    between atoms: C_6  and  C_38
REMARK    4  A    between atoms: C_7  and  C_27
REMARK    5  A    between atoms: N_8  and  C_9
REMARK    6  A    between atoms: C_9  and  C_10
REMARK    7  A    between atoms: C_13  and  C_16
REMARK    8  A    between atoms: C_21  and  C_22
REMARK    9  A    between atoms: C_27  and  O_29
REMARK   10  A    between atoms: O_29  and  C_30
REMARK   11  A    between atoms: C_30  and  C_31
REMARK                            x       y       z     vdW  Elec       q    Type
REMARK                         _______ _______ _______ _____ _____    ______ ____
ROOT
ATOM      1  C   UNL     1      44.773  79.381  39.417  0.00  0.00    +0.120 A 
ATOM      2  N   UNL     1      45.149  80.400  38.638  0.00  0.00    -0.233 NA
ATOM      3  C   UNL     1      46.111  81.144  39.207  0.00  0.00    +0.110 A 
ATOM      4  C   UNL     1      46.354  80.548  40.434  0.00  0.00    +0.154 A 
ATOM      5  N   UNL     1      45.530  79.476  40.537  0.00  0.00    -0.306 N 
ENDROOT
BRANCH   3   6
ATOM      6  C   UNL     1      46.789  82.350  38.606  0.00  0.00    +0.163 C 
ATOM      7  C   UNL     1      48.121  82.007  38.010  0.00  0.00    +0.039 C 
ATOM      8  C   UNL     1      46.794  83.526  39.526  0.00  0.00    +0.039 C 
ATOM      9  O   UNL     1      45.980  82.724  37.498  0.00  0.00    -0.220 OA
ENDBRANCH   3   6
BRANCH   4  10
ATOM     10  C   UNL     1      47.292  81.009  41.461  0.00  0.00    +0.359 C 
ATOM     11  O   UNL     1      47.046  82.095  42.035  0.00  0.00    -0.243 OA
BRANCH  10  12
ATOM     12  O   UNL     1      48.403  80.369  41.846  0.00  0.00    -0.436 OA
BRANCH  12  13
ATOM     13  C   UNL     1      49.719  80.652  42.016  0.00  0.00    +0.275 C 
BRANCH  13  14
ATOM     14  C   UNL     1      50.164  81.279  43.264  0.00  0.00    +0.204 A 
ATOM     15  C   UNL     1      51.053  82.303  43.449  0.00  0.00    +0.164 A 
ATOM     16  O   UNL     1      51.171  82.576  44.731  0.00  0.00    -0.395 OA
ATOM     17  C   UNL     1      50.379  81.748  45.355  0.00  0.00    +0.521 A 
ATOM     18  O   UNL     1      50.228  81.714  46.608  0.00  0.00    -0.202 OA
ATOM     19  O   UNL     1      49.774  80.971  44.497  0.00  0.00    -0.391 OA
ATOM     20  C   UNL     1      51.844  83.076  42.434  0.00  0.00    +0.076 C 
ENDBRANCH  13  14
ENDBRANCH  12  13
ENDBRANCH  10  12
ENDBRANCH   4  10
BRANCH   1  21
ATOM     21  C   UNL     1      43.717  78.355  39.125  0.00  0.00    +0.064 C 
BRANCH  21  23
ATOM     22  C   UNL     1      41.288  78.192  38.516  0.00  0.00    +0.000 C 
ATOM     23  C   UNL     1      42.397  79.090  39.017  0.00  0.00    +0.008 C 
ENDBRANCH  21  23
ENDBRANCH   1  21
BRANCH   5  24
ATOM     24  C   UNL     1      45.451  78.490  41.621  0.00  0.00    +0.134 C 
BRANCH  24  25
ATOM     25  C   UNL     1      44.726  77.266  41.191  0.00  0.00    +0.000 A 
ATOM     26  C   UNL     1      43.550  76.950  41.835  0.00  0.00    -0.002 A 
ATOM     27  C   UNL     1      42.810  75.840  41.477  0.00  0.00    -0.000 A 
ATOM     28  C   UNL     1      43.201  74.990  40.463  0.00  0.00    +0.000 A 
ATOM     29  C   UNL     1      44.376  75.315  39.826  0.00  0.00    -0.000 A 
ATOM     30  C   UNL     1      45.131  76.432  40.178  0.00  0.00    -0.002 A 
BRANCH  28  31
ATOM     31  C   UNL     1      42.403  73.827  40.099  0.00  0.00    +0.003 A 
ATOM     32  C   UNL     1      41.650  73.835  38.916  0.00  0.00    +0.000 A 
ATOM     33  C   UNL     1      40.909  72.744  38.560  0.00  0.00    +0.000 A 
ATOM     34  C   UNL     1      40.909  71.627  39.383  0.00  0.00    +0.000 A 
ATOM     35  C   UNL     1      41.639  71.598  40.547  0.00  0.00    +0.003 A 
ATOM     36  C   UNL     1      42.396  72.720  40.905  0.00  0.00    +0.039 A 
BRANCH  36  37
ATOM     37  C   UNL     1      43.154  72.654  42.144  0.00  0.00    +0.208 A 
ATOM     38  N   UNL     1      42.673  72.214  43.345  0.00  0.00    -0.106 NA
ATOM     39  N   UNL     1      43.604  72.288  44.278  0.00  0.00    -0.021 NA
ATOM     40  N   UNL     1      44.680  72.772  43.692  0.00  0.00    -0.021 NA
ATOM     41  N   UNL     1      44.418  72.992  42.419  0.00  0.00    -0.106 NA
ENDBRANCH  36  37
ENDBRANCH  28  31
ENDBRANCH  24  25
ENDBRANCH   5  24
TORSDOF 11
