REMARK  Name = Olodaterol
REMARK  7 active torsions:
REMARK  status: ('A' for Active; 'I' for Inactive)
REMARK    1  A    between atoms: C_2  and  C_4
REMARK    2  A    between atoms: C_2  and  N_13
REMARK    3  A    between atoms: C_4  and  C_5
REMARK    4  A    between atoms: C_8  and  O_11
REMARK    5  A    between atoms: N_13  and  C_14
REMARK    6  A    between atoms: C_14  and  C_15
REMARK    7  A    between atoms: C_15  and  C_16
REMARK                            x       y       z     vdW  Elec       q    Type
REMARK                         _______ _______ _______ _____ _____    ______ ____
ROOT
ATOM      1  C   UNL     1      46.198  80.480  39.949  0.00  0.00    +0.126 C 
ENDROOT
BRANCH   1   2
ATOM      2  C   UNL     1      45.379  80.542  38.671  0.00  0.00    +0.195 C 
ATOM      3  O   UNL     1      44.862  81.830  38.485  0.00  0.00    -0.217 OA
BRANCH   2   4
ATOM      4  C   UNL     1      44.262  79.575  38.836  0.00  0.00    +0.048 A 
ATOM      5  C   UNL     1      44.266  78.668  39.889  0.00  0.00    +0.153 A 
ATOM      6  C   UNL     1      43.248  77.756  40.076  0.00  0.00    +0.110 A 
ATOM      7  C   UNL     1      42.187  77.746  39.180  0.00  0.00    +0.062 A 
ATOM      8  C   UNL     1      42.151  78.626  38.130  0.00  0.00    +0.197 A 
ATOM      9  C   UNL     1      43.176  79.521  37.970  0.00  0.00    +0.043 A 
ATOM     10  O   UNL     1      41.082  78.588  37.261  0.00  0.00    -0.287 OA
ATOM     11  N   UNL     1      43.253  76.818  41.166  0.00  0.00    -0.173 NA
ATOM     12  C   UNL     1      44.362  76.882  42.042  0.00  0.00    +0.290 C 
ATOM     13  O   UNL     1      44.561  75.953  42.841  0.00  0.00    -0.269 OA
ATOM     14  C   UNL     1      45.304  78.031  42.037  0.00  0.00    +0.292 C 
ATOM     15  O   UNL     1      45.334  78.690  40.776  0.00  0.00    -0.464 OA
ENDBRANCH   2   4
ENDBRANCH   1   2
BRANCH   1  16
ATOM     16  N   UNL     1      47.370  81.290  39.891  0.00  0.00    -0.217 NA
BRANCH  16  18
ATOM     17  C   UNL     1      49.541  81.726  40.936  0.00  0.00    +0.018 C 
ATOM     18  C   UNL     1      48.169  81.066  41.074  0.00  0.00    +0.064 C 
ATOM     19  C   UNL     1      48.468  79.587  41.265  0.00  0.00    +0.018 C 
BRANCH  18  20
ATOM     20  C   UNL     1      47.530  81.569  42.336  0.00  0.00    +0.042 C 
BRANCH  20  21
ATOM     21  C   UNL     1      48.309  82.721  42.904  0.00  0.00    -0.021 A 
ATOM     22  C   UNL     1      49.645  82.541  43.217  0.00  0.00    -0.001 A 
ATOM     23  C   UNL     1      50.385  83.571  43.733  0.00  0.00    +0.037 A 
ATOM     24  C   UNL     1      49.847  84.819  43.963  0.00  0.00    +0.139 A 
ATOM     25  C   UNL     1      48.510  84.978  43.644  0.00  0.00    +0.037 A 
ATOM     26  C   UNL     1      47.746  83.955  43.124  0.00  0.00    -0.001 A 
BRANCH  24  27
ATOM     27  O   UNL     1      50.552  85.884  44.480  0.00  0.00    -0.471 OA
ATOM     28  C   UNL     1      51.610  85.680  45.368  0.00  0.00    +0.252 C 
ENDBRANCH  24  27
ENDBRANCH  20  21
ENDBRANCH  18  20
ENDBRANCH  16  18
ENDBRANCH   1  16
TORSDOF 7
