REMARK  Name = Olopatadine
REMARK  5 active torsions:
REMARK  status: ('A' for Active; 'I' for Inactive)
REMARK    1  A    between atoms: N_2  and  C_4
REMARK    2  A    between atoms: C_4  and  C_5
REMARK    3  A    between atoms: C_5  and  C_6
REMARK    4  A    between atoms: C_19  and  C_22
REMARK    5  A    between atoms: C_22  and  C_23
REMARK                            x       y       z     vdW  Elec       q    Type
REMARK                         _______ _______ _______ _____ _____    ______ ____
ROOT
ATOM      1  C   UNL     1      46.407  78.136  40.853  0.00  0.00    -0.025 C 
ATOM      2  C   UNL     1      45.978  79.258  40.410  0.00  0.00    -0.002 C 
ATOM      3  C   UNL     1      46.751  80.477  40.755  0.00  0.00    -0.001 A 
ATOM      4  C   UNL     1      47.260  80.416  42.015  0.00  0.00    -0.000 A 
ATOM      5  C   UNL     1      48.016  81.464  42.477  0.00  0.00    -0.000 A 
ATOM      6  C   UNL     1      48.247  82.550  41.672  0.00  0.00    -0.000 A 
ATOM      7  C   UNL     1      47.731  82.599  40.416  0.00  0.00    -0.001 A 
ATOM      8  C   UNL     1      46.959  81.565  39.898  0.00  0.00    +0.021 A 
ATOM      9  C   UNL     1      46.517  81.854  38.518  0.00  0.00    +0.232 C 
ATOM     10  O   UNL     1      45.591  81.001  37.921  0.00  0.00    -0.471 OA
ATOM     11  C   UNL     1      44.634  80.114  38.442  0.00  0.00    +0.139 A 
ATOM     12  C   UNL     1      44.770  79.332  39.584  0.00  0.00    +0.033 A 
ATOM     13  C   UNL     1      43.788  78.493  40.047  0.00  0.00    -0.001 A 
ATOM     14  C   UNL     1      42.607  78.398  39.359  0.00  0.00    -0.011 A 
ATOM     15  C   UNL     1      42.455  79.164  38.221  0.00  0.00    -0.001 A 
ATOM     16  C   UNL     1      43.455  80.023  37.753  0.00  0.00    +0.037 A 
ENDROOT
BRANCH   1  17
ATOM     17  C   UNL     1      45.770  76.855  41.210  0.00  0.00    +0.043 C 
BRANCH  17  18
ATOM     18  C   UNL     1      45.507  76.808  42.687  0.00  0.00    +0.077 C 
BRANCH  18  20
ATOM     19  C   UNL     1      45.373  74.465  42.471  0.00  0.00    +0.090 C 
ATOM     20  N   UNL     1      44.717  75.624  43.050  0.00  0.00    -0.270 NA
ATOM     21  C   UNL     1      44.697  75.494  44.488  0.00  0.00    +0.090 C 
ENDBRANCH  18  20
ENDBRANCH  17  18
ENDBRANCH   1  17
BRANCH  14  22
ATOM     22  C   UNL     1      41.551  77.468  39.870  0.00  0.00    +0.140 C 
BRANCH  22  23
ATOM     23  C   UNL     1      40.811  76.908  38.720  0.00  0.00    +0.369 C 
ATOM     24  O   UNL     1      40.361  75.717  38.722  0.00  0.00    -0.245 OA
ATOM     25  O   UNL     1      40.583  77.677  37.587  0.00  0.00    -0.245 OA
ENDBRANCH  22  23
ENDBRANCH  14  22
TORSDOF 5
