REMARK  Name = Olprinone
REMARK  2 active torsions:
REMARK  status: ('A' for Active; 'I' for Inactive)
REMARK    1  A    between atoms: C_3  and  C_11
REMARK    2  A    between atoms: C_5  and  C_9
REMARK                            x       y       z     vdW  Elec       q    Type
REMARK                         _______ _______ _______ _____ _____    ______ ____
ROOT
ATOM      1  C   UNL     1      47.785  84.440  42.761  0.00  0.00    +0.052 C 
ATOM      2  C   UNL     1      48.718  83.290  42.768  0.00  0.00    +0.063 A 
ATOM      3  C   UNL     1      48.583  82.268  41.856  0.00  0.00    +0.016 A 
ATOM      4  C   UNL     1      49.487  81.230  41.916  0.00  0.00    +0.016 A 
ATOM      5  C   UNL     1      50.507  81.215  42.871  0.00  0.00    +0.126 A 
ATOM      6  C   UNL     1      50.599  82.260  43.761  0.00  0.00    +0.289 A 
ATOM      7  O   UNL     1      51.524  82.224  44.610  0.00  0.00    -0.264 OA
ATOM      8  N   UNL     1      49.710  83.269  43.693  0.00  0.00    -0.212 NA
ENDROOT
BRANCH   3   9
ATOM      9  C   UNL     1      47.517  82.249  40.837  0.00  0.00    +0.019 A 
ATOM     10  C   UNL     1      46.633  81.197  40.793  0.00  0.00    +0.081 A 
ATOM     11  N   UNL     1      45.625  81.085  39.906  0.00  0.00    -0.287 N 
ATOM     12  C   UNL     1      44.663  80.169  39.682  0.00  0.00    +0.102 A 
ATOM     13  C   UNL     1      43.904  80.600  38.618  0.00  0.00    +0.120 A 
ATOM     14  N   UNL     1      44.436  81.772  38.229  0.00  0.00    -0.225 NA
ATOM     15  C   UNL     1      45.509  82.094  39.017  0.00  0.00    +0.148 A 
ATOM     16  C   UNL     1      46.356  83.181  38.998  0.00  0.00    +0.037 A 
ATOM     17  C   UNL     1      47.370  83.258  39.919  0.00  0.00    +0.005 A 
ENDBRANCH   3   9
BRANCH   5  18
ATOM     18  C   UNL     1      51.416  80.101  42.877  0.00  0.00    +0.105 C 
ATOM     19  N   UNL     1      52.153  79.192  42.899  0.00  0.00    -0.191 NA
ENDBRANCH   5  18
TORSDOF 2
