REMARK  Name = Olsalazine
REMARK  4 active torsions:
REMARK  status: ('A' for Active; 'I' for Inactive)
REMARK    1  A    between atoms: C_4  and  C_19
REMARK    2  A    between atoms: C_6  and  N_7
REMARK    3  A    between atoms: N_8  and  C_9
REMARK    4  A    between atoms: C_11  and  C_16
REMARK                            x       y       z     vdW  Elec       q    Type
REMARK                         _______ _______ _______ _____ _____    ______ ____
ROOT
ATOM      1  N   UNL     1      46.721  81.291  40.495  0.00  0.00    -0.148 NA
ATOM      2  N   UNL     1      46.797  81.678  41.700  0.00  0.00    -0.148 NA
ENDROOT
BRANCH   1   8
ATOM      3  C   UNL     1      45.095  80.631  38.798  0.00  0.00    +0.024 A 
ATOM      4  C   UNL     1      44.114  79.793  38.309  0.00  0.00    +0.044 A 
ATOM      5  C   UNL     1      43.701  78.689  39.020  0.00  0.00    +0.202 A 
ATOM      6  C   UNL     1      44.312  78.460  40.240  0.00  0.00    +0.120 A 
ATOM      7  C   UNL     1      45.297  79.302  40.730  0.00  0.00    +0.031 A 
ATOM      8  C   UNL     1      45.711  80.408  40.018  0.00  0.00    +0.103 A 
ATOM      9  O   UNL     1      42.715  77.823  38.558  0.00  0.00    -0.286 OA
BRANCH   6  10
ATOM     10  C   UNL     1      43.888  77.293  41.009  0.00  0.00    +0.391 C 
ATOM     11  O   UNL     1      44.373  77.104  42.136  0.00  0.00    -0.240 OA
ATOM     12  O   UNL     1      42.971  76.399  40.527  0.00  0.00    -0.240 OA
ENDBRANCH   6  10
ENDBRANCH   1   8
BRANCH   2  13
ATOM     13  C   UNL     1      47.831  82.508  42.197  0.00  0.00    +0.103 A 
ATOM     14  C   UNL     1      49.134  82.109  42.020  0.00  0.00    +0.031 A 
ATOM     15  C   UNL     1      50.152  82.916  42.504  0.00  0.00    +0.120 A 
ATOM     16  C   UNL     1      49.881  84.103  43.154  0.00  0.00    +0.202 A 
ATOM     17  C   UNL     1      48.587  84.494  43.327  0.00  0.00    +0.044 A 
ATOM     18  C   UNL     1      47.564  83.690  42.845  0.00  0.00    +0.024 A 
ATOM     19  O   UNL     1      50.939  84.884  43.625  0.00  0.00    -0.286 OA
BRANCH  15  20
ATOM     20  C   UNL     1      51.549  82.498  42.319  0.00  0.00    +0.391 C 
ATOM     21  O   UNL     1      52.481  83.207  42.787  0.00  0.00    -0.240 OA
ATOM     22  O   UNL     1      51.877  81.337  41.639  0.00  0.00    -0.240 OA
ENDBRANCH  15  20
ENDBRANCH   2  13
TORSDOF 4
