REMARK  Name = Omaveloxolone
REMARK  3 active torsions:
REMARK  status: ('A' for Active; 'I' for Inactive)
REMARK    1  A    between atoms: C_5  and  N_33
REMARK    2  A    between atoms: C_22  and  C_28
REMARK    3  A    between atoms: C_34  and  C_36
REMARK                            x       y       z     vdW  Elec       q    Type
REMARK                         _______ _______ _______ _____ _____    ______ ____
ROOT
ATOM      1  C   UNL     1      42.584  77.325  36.743  0.00  0.00    +0.000 C 
ATOM      2  C   UNL     1      42.391  78.078  38.046  0.00  0.00    +0.000 C 
ATOM      3  C   UNL     1      42.007  77.087  39.096  0.00  0.00    +0.002 C 
ATOM      4  C   UNL     1      42.004  77.779  40.437  0.00  0.00    +0.020 C 
ATOM      5  C   UNL     1      43.434  78.145  40.737  0.00  0.00    +0.079 C 
ATOM      6  C   UNL     1      43.576  78.589  42.145  0.00  0.00    +0.020 C 
ATOM      7  C   UNL     1      44.776  79.394  42.495  0.00  0.00    +0.002 C 
ATOM      8  C   UNL     1      45.067  80.487  41.452  0.00  0.00    +0.010 C 
ATOM      9  C   UNL     1      45.153  79.710  40.154  0.00  0.00    +0.064 C 
ATOM     10  C   UNL     1      43.807  79.266  39.750  0.00  0.00    +0.026 C 
ATOM     11  C   UNL     1      43.662  78.814  38.331  0.00  0.00    +0.002 C 
ATOM     12  C   UNL     1      45.954  80.474  39.188  0.00  0.00    +0.172 C 
ATOM     13  O   UNL     1      45.599  80.872  38.057  0.00  0.00    -0.291 OA
ATOM     14  C   UNL     1      47.301  80.773  39.642  0.00  0.00    +0.029 C 
ATOM     15  C   UNL     1      47.450  81.167  40.914  0.00  0.00    -0.039 C 
ATOM     16  C   UNL     1      46.267  81.283  41.771  0.00  0.00    +0.016 C 
ATOM     17  C   UNL     1      46.683  81.032  43.216  0.00  0.00    +0.004 C 
ATOM     18  C   UNL     1      47.782  81.993  43.541  0.00  0.00    +0.001 C 
ATOM     19  C   UNL     1      49.062  81.673  42.788  0.00  0.00    +0.014 C 
ATOM     20  C   UNL     1      48.860  81.451  41.349  0.00  0.00    +0.035 C 
ATOM     21  C   UNL     1      49.430  82.478  40.443  0.00  0.00    -0.010 C 
ATOM     22  C   UNL     1      50.462  83.223  40.791  0.00  0.00    +0.099 C 
ATOM     23  C   UNL     1      51.012  82.981  42.124  0.00  0.00    +0.181 C 
ATOM     24  O   UNL     1      52.232  83.047  42.323  0.00  0.00    -0.291 OA
ATOM     25  C   UNL     1      50.084  82.661  43.221  0.00  0.00    +0.057 C 
ATOM     26  C   UNL     1      50.869  82.094  44.397  0.00  0.00    +0.008 C 
ATOM     27  C   UNL     1      49.494  83.980  43.697  0.00  0.00    +0.008 C 
ATOM     28  C   UNL     1      49.616  80.148  40.983  0.00  0.00    +0.008 C 
ATOM     29  C   UNL     1      45.939  82.806  41.747  0.00  0.00    +0.004 C 
ATOM     30  C   UNL     1      43.863  81.429  41.430  0.00  0.00    +0.001 C 
ATOM     31  C   UNL     1      41.216  79.018  37.833  0.00  0.00    +0.000 C 
ENDROOT
BRANCH   5  32
ATOM     32  N   UNL     1      44.257  77.006  40.395  0.00  0.00    -0.204 NA
ATOM     33  C   UNL     1      43.858  75.679  40.743  0.00  0.00    +0.302 C 
ATOM     34  O   UNL     1      42.851  75.133  40.206  0.00  0.00    -0.267 OA
BRANCH  33  35
ATOM     35  C   UNL     1      44.672  74.951  41.764  0.00  0.00    +0.332 C 
ATOM     36  C   UNL     1      43.779  73.982  42.495  0.00  0.00    +0.082 C 
ATOM     37  F   UNL     1      45.781  74.348  41.211  0.00  0.00    -0.195 F 
ATOM     38  F   UNL     1      45.122  75.881  42.689  0.00  0.00    -0.195 F 
ENDBRANCH  33  35
ENDBRANCH   5  32
BRANCH  22  39
ATOM     39  C   UNL     1      51.067  84.217  39.949  0.00  0.00    +0.103 C 
ATOM     40  N   UNL     1      51.559  85.012  39.256  0.00  0.00    -0.191 NA
ENDBRANCH  22  39
TORSDOF 3
