REMARK  Name = Omeprazole
REMARK  5 active torsions:
REMARK  status: ('A' for Active; 'I' for Inactive)
REMARK    1  A    between atoms: C_5  and  C_11
REMARK    2  A    between atoms: C_7  and  O_8
REMARK    3  A    between atoms: C_11  and  S_12
REMARK    4  A    between atoms: S_12  and  C_14
REMARK    5  A    between atoms: C_20  and  O_23
REMARK                            x       y       z     vdW  Elec       q    Type
REMARK                         _______ _______ _______ _____ _____    ______ ____
ROOT
ATOM      1  S   UNL     1      46.585  81.406  39.276  0.00  0.00    +0.107 S 
ATOM      2  O   UNL     1      46.015  82.468  38.325  0.00  0.00    -0.248 OA
ENDROOT
BRANCH   1   3
ATOM      3  C   UNL     1      45.355  80.122  39.279  0.00  0.00    +0.221 A 
ATOM      4  N   UNL     1      45.371  79.042  40.058  0.00  0.00    -0.218 NA
ATOM      5  C   UNL     1      44.295  78.276  39.805  0.00  0.00    +0.101 A 
ATOM      6  C   UNL     1      43.574  78.909  38.821  0.00  0.00    +0.104 A 
ATOM      7  N   UNL     1      44.249  80.031  38.523  0.00  0.00    -0.218 NA
ATOM      8  C   UNL     1      42.393  78.376  38.324  0.00  0.00    +0.058 A 
ATOM      9  C   UNL     1      41.977  77.163  38.877  0.00  0.00    +0.140 A 
ATOM     10  C   UNL     1      42.715  76.541  39.866  0.00  0.00    +0.039 A 
ATOM     11  C   UNL     1      43.887  77.086  40.348  0.00  0.00    +0.024 A 
BRANCH   9  12
ATOM     12  O   UNL     1      40.796  76.650  38.366  0.00  0.00    -0.471 OA
ATOM     13  C   UNL     1      40.463  76.901  37.032  0.00  0.00    +0.252 C 
ENDBRANCH   9  12
ENDBRANCH   1   3
BRANCH   1  14
ATOM     14  C   UNL     1      46.363  82.196  40.909  0.00  0.00    +0.145 C 
BRANCH  14  19
ATOM     15  C   UNL     1      51.521  82.494  43.296  0.00  0.00    +0.036 C 
ATOM     16  C   UNL     1      50.179  82.388  42.651  0.00  0.00    +0.031 A 
ATOM     17  C   UNL     1      49.918  81.431  41.682  0.00  0.00    +0.097 A 
ATOM     18  N   UNL     1      48.670  81.394  41.137  0.00  0.00    -0.248 NA
ATOM     19  C   UNL     1      47.714  82.257  41.521  0.00  0.00    +0.072 A 
ATOM     20  C   UNL     1      47.959  83.221  42.489  0.00  0.00    +0.026 A 
ATOM     21  C   UNL     1      49.211  83.281  43.057  0.00  0.00    +0.133 A 
ATOM     22  C   UNL     1      46.906  84.172  42.915  0.00  0.00    +0.035 C 
BRANCH  21  23
ATOM     23  O   UNL     1      49.447  84.246  44.023  0.00  0.00    -0.472 OA
ATOM     24  C   UNL     1      49.908  85.545  43.689  0.00  0.00    +0.252 C 
ENDBRANCH  21  23
ENDBRANCH  14  19
ENDBRANCH   1  14
TORSDOF 5
