REMARK  Name = Omidenepag_isopropyl
REMARK  12 active torsions:
REMARK  status: ('A' for Active; 'I' for Inactive)
REMARK    1  A    between atoms: C_2  and  O_4
REMARK    2  A    between atoms: O_4  and  C_5
REMARK    3  A    between atoms: C_5  and  C_7
REMARK    4  A    between atoms: C_7  and  N_8
REMARK    5  A    between atoms: N_8  and  C_9
REMARK    6  A    between atoms: C_13  and  C_15
REMARK    7  A    between atoms: C_15  and  N_16
REMARK    8  A    between atoms: N_16  and  C_17
REMARK    9  A    between atoms: N_16  and  S_29
REMARK   10  A    between atoms: C_17  and  C_18
REMARK   11  A    between atoms: C_21  and  N_24
REMARK   12  A    between atoms: S_29  and  C_32
REMARK                            x       y       z     vdW  Elec       q    Type
REMARK                         _______ _______ _______ _____ _____    ______ ____
ROOT
ATOM      1  N   UNL     1      45.970  78.249  41.526  0.00  0.00    -0.145 NA
ENDROOT
BRANCH   1   2
ATOM      2  S   UNL     1      44.823  79.000  40.614  0.00  0.00    +0.065 S 
ATOM      3  O   UNL     1      43.668  79.426  41.538  0.00  0.00    -0.153 OA
ATOM      4  O   UNL     1      44.156  78.004  39.671  0.00  0.00    -0.153 OA
BRANCH   2   5
ATOM      5  C   UNL     1      45.258  80.427  39.724  0.00  0.00    +0.141 A 
ATOM      6  C   UNL     1      44.886  80.726  38.447  0.00  0.00    +0.119 A 
ATOM      7  N   UNL     1      45.268  81.857  37.828  0.00  0.00    -0.241 NA
ATOM      8  C   UNL     1      46.047  82.783  38.419  0.00  0.00    +0.099 A 
ATOM      9  C   UNL     1      46.437  82.502  39.715  0.00  0.00    +0.022 A 
ATOM     10  C   UNL     1      46.063  81.355  40.377  0.00  0.00    +0.023 A 
ENDBRANCH   2   5
ENDBRANCH   1   2
BRANCH   1  11
ATOM     11  C   UNL     1      46.202  76.886  41.307  0.00  0.00    +0.142 C 
BRANCH  11  16
ATOM     12  C   UNL     1      44.333  74.968  43.884  0.00  0.00    +0.148 A 
ATOM     13  C   UNL     1      43.561  74.129  43.099  0.00  0.00    +0.036 A 
ATOM     14  C   UNL     1      43.646  74.174  41.722  0.00  0.00    +0.004 A 
ATOM     15  C   UNL     1      44.527  75.086  41.165  0.00  0.00    +0.016 A 
ATOM     16  C   UNL     1      45.291  75.919  41.943  0.00  0.00    +0.078 A 
ATOM     17  N   UNL     1      45.168  75.831  43.286  0.00  0.00    -0.232 NA
BRANCH  12  18
ATOM     18  N   UNL     1      44.246  74.916  45.321  0.00  0.00    -0.208 NA
BRANCH  18  19
ATOM     19  C   UNL     1      45.036  75.786  46.150  0.00  0.00    +0.223 C 
BRANCH  19  20
ATOM     20  C   UNL     1      44.736  75.596  47.599  0.00  0.00    +0.339 C 
ATOM     21  O   UNL     1      43.961  74.687  47.995  0.00  0.00    -0.248 OA
BRANCH  20  22
ATOM     22  O   UNL     1      45.297  76.408  48.550  0.00  0.00    -0.451 OA
BRANCH  22  24
ATOM     23  C   UNL     1      45.981  75.175  50.448  0.00  0.00    +0.047 C 
ATOM     24  C   UNL     1      45.028  76.248  49.947  0.00  0.00    +0.169 C 
ATOM     25  C   UNL     1      45.329  77.581  50.592  0.00  0.00    +0.047 C 
ENDBRANCH  22  24
ENDBRANCH  20  22
ENDBRANCH  19  20
ENDBRANCH  18  19
ENDBRANCH  12  18
ENDBRANCH  11  16
ENDBRANCH   1  11
BRANCH   1  26
ATOM     26  C   UNL     1      46.392  78.782  42.765  0.00  0.00    +0.123 C 
BRANCH  26  27
ATOM     27  C   UNL     1      47.471  79.780  42.729  0.00  0.00    -0.004 A 
ATOM     28  C   UNL     1      47.383  80.935  43.446  0.00  0.00    -0.001 A 
ATOM     29  C   UNL     1      48.380  81.913  43.430  0.00  0.00    +0.019 A 
ATOM     30  C   UNL     1      49.512  81.722  42.663  0.00  0.00    +0.083 A 
ATOM     31  C   UNL     1      49.615  80.573  41.942  0.00  0.00    +0.019 A 
ATOM     32  C   UNL     1      48.629  79.610  41.959  0.00  0.00    -0.001 A 
BRANCH  30  33
ATOM     33  N   UNL     1      50.528  82.721  42.652  0.00  0.00    -0.228 N 
ATOM     34  C   UNL     1      50.417  83.967  43.178  0.00  0.00    +0.102 A 
ATOM     35  C   UNL     1      51.593  84.649  42.983  0.00  0.00    +0.043 A 
ATOM     36  C   UNL     1      52.422  83.787  42.325  0.00  0.00    +0.122 A 
ATOM     37  N   UNL     1      51.741  82.648  42.150  0.00  0.00    -0.163 NA
ENDBRANCH  30  33
ENDBRANCH  26  27
ENDBRANCH   1  26
TORSDOF 12
