REMARK  Name = OPC-34712
REMARK  7 active torsions:
REMARK  status: ('A' for Active; 'I' for Inactive)
REMARK    1  A    between atoms: N_3  and  C_23
REMARK    2  A    between atoms: N_6  and  C_7
REMARK    3  A    between atoms: C_7  and  C_8
REMARK    4  A    between atoms: C_8  and  C_9
REMARK    5  A    between atoms: C_9  and  C_10
REMARK    6  A    between atoms: C_10  and  O_11
REMARK    7  A    between atoms: O_11  and  C_12
REMARK                            x       y       z     vdW  Elec       q    Type
REMARK                         _______ _______ _______ _____ _____    ______ ____
ROOT
ATOM      1  C   UNL     1      43.515  77.943  39.752  0.00  0.00    +0.072 C 
ENDROOT
BRANCH   1   7
ATOM      2  C   UNL     1      41.250  77.086  39.819  0.00  0.00    +0.094 C 
ATOM      3  C   UNL     1      40.722  76.234  38.701  0.00  0.00    +0.108 C 
ATOM      4  N   UNL     1      40.127  76.998  37.608  0.00  0.00    -0.305 N 
ATOM      5  C   UNL     1      40.668  78.312  37.419  0.00  0.00    +0.108 C 
ATOM      6  C   UNL     1      42.121  78.245  37.914  0.00  0.00    +0.094 C 
ATOM      7  N   UNL     1      42.157  78.115  39.358  0.00  0.00    -0.270 NA
BRANCH   4   8
ATOM      8  C   UNL     1      39.131  76.344  36.847  0.00  0.00    +0.048 A 
ATOM      9  C   UNL     1      39.268  75.070  36.260  0.00  0.00    +0.020 A 
ATOM     10  C   UNL     1      40.370  74.277  36.266  0.00  0.00    +0.009 A 
ATOM     11  C   UNL     1      40.291  73.070  35.623  0.00  0.00    +0.035 A 
ATOM     12  S   UNL     1      38.702  73.055  35.023  0.00  0.00    -0.086 S 
ATOM     13  C   UNL     1      38.176  74.572  35.599  0.00  0.00    +0.031 A 
ATOM     14  C   UNL     1      36.952  75.248  35.474  0.00  0.00    +0.007 A 
ATOM     15  C   UNL     1      36.816  76.493  36.044  0.00  0.00    +0.002 A 
ATOM     16  C   UNL     1      37.888  76.984  36.695  0.00  0.00    +0.015 A 
ENDBRANCH   4   8
ENDBRANCH   1   7
BRANCH   1  17
ATOM     17  C   UNL     1      44.245  79.180  40.148  0.00  0.00    +0.021 C 
BRANCH  17  18
ATOM     18  C   UNL     1      45.598  78.901  40.762  0.00  0.00    +0.049 C 
BRANCH  18  19
ATOM     19  C   UNL     1      46.440  80.132  40.523  0.00  0.00    +0.205 C 
BRANCH  19  20
ATOM     20  O   UNL     1      46.439  81.073  41.511  0.00  0.00    -0.475 OA
BRANCH  20  21
ATOM     21  C   UNL     1      47.381  81.826  42.106  0.00  0.00    +0.140 A 
ATOM     22  C   UNL     1      48.728  81.665  41.718  0.00  0.00    +0.056 A 
ATOM     23  C   UNL     1      49.699  82.425  42.318  0.00  0.00    +0.088 A 
ATOM     24  C   UNL     1      49.427  83.353  43.295  0.00  0.00    +0.018 A 
ATOM     25  C   UNL     1      48.116  83.499  43.662  0.00  0.00    +0.005 A 
ATOM     26  C   UNL     1      47.095  82.746  43.079  0.00  0.00    +0.037 A 
ATOM     27  C   UNL     1      50.432  84.110  43.886  0.00  0.00    +0.006 A 
ATOM     28  C   UNL     1      51.718  83.907  43.467  0.00  0.00    +0.063 A 
ATOM     29  C   UNL     1      51.974  82.975  42.488  0.00  0.00    +0.279 A 
ATOM     30  O   UNL     1      53.196  82.829  42.136  0.00  0.00    -0.265 OA
ATOM     31  N   UNL     1      50.994  82.260  41.935  0.00  0.00    -0.208 NA
ENDBRANCH  20  21
ENDBRANCH  19  20
ENDBRANCH  18  19
ENDBRANCH  17  18
ENDBRANCH   1  17
TORSDOF 7
