REMARK  Name = Opicapone
REMARK  3 active torsions:
REMARK  status: ('A' for Active; 'I' for Inactive)
REMARK    1  A    between atoms: C_3  and  C_12
REMARK    2  A    between atoms: C_15  and  C_17
REMARK    3  A    between atoms: C_19  and  N_25
REMARK                            x       y       z     vdW  Elec       q    Type
REMARK                         _______ _______ _______ _____ _____    ______ ____
ROOT
ATOM      1  C   UNL     1      47.506  82.020  40.857  0.00  0.00    +0.206 A 
ATOM      2  N   UNL     1      47.110  82.573  39.700  0.00  0.00    -0.056 NA
ATOM      3  O   UNL     1      46.128  81.872  39.188  0.00  0.00    -0.332 OA
ATOM      4  C   UNL     1      45.855  80.848  39.986  0.00  0.00    +0.260 A 
ATOM      5  N   UNL     1      46.709  80.945  41.017  0.00  0.00    -0.187 NA
ENDROOT
BRANCH   1   8
ATOM      6  C   UNL     1      46.916  84.097  42.636  0.00  0.00    +0.032 C 
ATOM      7  C   UNL     1      48.304  83.546  42.599  0.00  0.00    -0.005 A 
ATOM      8  C   UNL     1      48.573  82.519  41.709  0.00  0.00    +0.066 A 
ATOM      9  C   UNL     1      49.864  82.035  41.700  0.00  0.00    +0.161 A 
ATOM     10  N   UNL     1      50.826  82.536  42.519  0.00  0.00    -0.123 N 
ATOM     11  C   UNL     1      50.584  83.529  43.385  0.00  0.00    +0.091 A 
ATOM     12  C   UNL     1      49.301  84.046  43.428  0.00  0.00    +0.069 A 
ATOM     13 CL   UNL     1      48.949  85.334  44.536  0.00  0.00    -0.081 Cl
ATOM     14  C   UNL     1      51.647  84.071  44.277  0.00  0.00    +0.055 C 
ATOM     15  O   UNL     1      52.104  82.028  42.482  0.00  0.00    -0.163 OA
ATOM     16 CL   UNL     1      50.266  80.736  40.598  0.00  0.00    -0.060 Cl
ENDBRANCH   1   8
BRANCH   4  17
ATOM     17  C   UNL     1      44.818  79.858  39.729  0.00  0.00    +0.061 A 
ATOM     18  C   UNL     1      44.642  78.783  40.596  0.00  0.00    +0.032 A 
ATOM     19  C   UNL     1      43.678  77.847  40.370  0.00  0.00    +0.185 A 
ATOM     20  C   UNL     1      42.837  77.926  39.272  0.00  0.00    +0.256 A 
ATOM     21  C   UNL     1      42.990  78.978  38.403  0.00  0.00    +0.236 A 
ATOM     22  C   UNL     1      43.977  79.925  38.646  0.00  0.00    +0.050 A 
ATOM     23  O   UNL     1      42.158  79.061  37.314  0.00  0.00    -0.283 OA
ATOM     24  O   UNL     1      41.893  76.924  39.133  0.00  0.00    -0.281 OA
BRANCH  19  25
ATOM     25  N   UNL     1      43.573  76.777  41.315  0.00  0.00    +0.061 N 
ATOM     26  O   UNL     1      42.561  76.049  41.366  0.00  0.00    -0.126 OA
ATOM     27  O   UNL     1      44.598  76.521  42.205  0.00  0.00    -0.126 OA
ENDBRANCH  19  25
ENDBRANCH   4  17
TORSDOF 3
