REMARK  Name = Orlistat
REMARK  23 active torsions:
REMARK  status: ('A' for Active; 'I' for Inactive)
REMARK    1  A    between atoms: C_2  and  C_3
REMARK    2  A    between atoms: C_3  and  C_4
REMARK    3  A    between atoms: C_4  and  C_5
REMARK    4  A    between atoms: C_5  and  C_6
REMARK    5  A    between atoms: C_6  and  C_7
REMARK    6  A    between atoms: C_7  and  C_8
REMARK    7  A    between atoms: C_8  and  C_9
REMARK    8  A    between atoms: C_9  and  C_10
REMARK    9  A    between atoms: C_10  and  C_11
REMARK   10  A    between atoms: C_11  and  C_12
REMARK   11  A    between atoms: C_12  and  C_13
REMARK   12  A    between atoms: C_12  and  O_25
REMARK   13  A    between atoms: C_13  and  C_14
REMARK   14  A    between atoms: C_15  and  C_19
REMARK   15  A    between atoms: C_19  and  C_20
REMARK   16  A    between atoms: C_20  and  C_21
REMARK   17  A    between atoms: C_21  and  C_22
REMARK   18  A    between atoms: C_22  and  C_23
REMARK   19  A    between atoms: O_25  and  C_26
REMARK   20  A    between atoms: C_26  and  C_28
REMARK   21  A    between atoms: C_28  and  C_29
REMARK   22  A    between atoms: C_28  and  N_33
REMARK   23  A    between atoms: C_29  and  C_30
REMARK                            x       y       z     vdW  Elec       q    Type
REMARK                         _______ _______ _______ _____ _____    ______ ____
ROOT
ATOM      1  C   UNL     1      44.720  78.261  40.742  0.00  0.00    +0.173 C 
ENDROOT
BRANCH   1   2
ATOM      2  O   UNL     1      43.335  78.165  40.299  0.00  0.00    -0.451 OA
BRANCH   2   3
ATOM      3  C   UNL     1      42.758  77.053  39.783  0.00  0.00    +0.337 C 
ATOM      4  O   UNL     1      43.421  76.022  39.643  0.00  0.00    -0.248 OA
BRANCH   3   5
ATOM      5  C   UNL     1      41.315  77.047  39.368  0.00  0.00    +0.194 C 
BRANCH   5   6
ATOM      6  N   UNL     1      40.800  75.734  39.662  0.00  0.00    -0.188 NA
ATOM      7  C   UNL     1      40.740  75.178  40.973  0.00  0.00    +0.321 C 
ATOM      8  O   UNL     1      40.120  74.076  41.111  0.00  0.00    -0.263 OA
ENDBRANCH   5   6
BRANCH   5   9
ATOM      9  C   UNL     1      41.240  77.403  37.929  0.00  0.00    +0.033 C 
BRANCH   9  10
ATOM     10  C   UNL     1      39.964  78.112  37.551  0.00  0.00    +0.002 C 
ATOM     11  C   UNL     1      38.794  77.224  37.869  0.00  0.00    +0.000 C 
ATOM     12  C   UNL     1      39.926  78.595  36.142  0.00  0.00    +0.000 C 
ENDBRANCH   9  10
ENDBRANCH   5   9
ENDBRANCH   3   5
ENDBRANCH   2   3
ENDBRANCH   1   2
BRANCH   1  13
ATOM     13  C   UNL     1      45.247  79.587  40.445  0.00  0.00    +0.088 C 
BRANCH  13  14
ATOM     14  C   UNL     1      46.185  79.846  39.331  0.00  0.00    +0.183 C 
ATOM     15  C   UNL     1      46.916  81.111  39.166  0.00  0.00    +0.139 C 
ATOM     16  C   UNL     1      45.533  81.618  38.992  0.00  0.00    +0.320 C 
ATOM     17  O   UNL     1      44.879  82.607  39.339  0.00  0.00    -0.250 OA
ATOM     18  O   UNL     1      45.344  80.415  38.242  0.00  0.00    -0.451 OA
BRANCH  15  19
ATOM     19  C   UNL     1      47.844  81.715  40.099  0.00  0.00    +0.015 C 
BRANCH  19  20
ATOM     20  C   UNL     1      47.180  82.903  40.779  0.00  0.00    +0.001 C 
BRANCH  20  21
ATOM     21  C   UNL     1      47.700  83.099  42.179  0.00  0.00    +0.000 C 
BRANCH  21  22
ATOM     22  C   UNL     1      48.713  84.202  42.253  0.00  0.00    +0.000 C 
BRANCH  22  23
ATOM     23  C   UNL     1      49.296  84.297  43.643  0.00  0.00    +0.000 C 
ATOM     24  C   UNL     1      50.207  85.498  43.784  0.00  0.00    +0.000 C 
ENDBRANCH  22  23
ENDBRANCH  21  22
ENDBRANCH  20  21
ENDBRANCH  19  20
ENDBRANCH  15  19
ENDBRANCH  13  14
ENDBRANCH   1  13
BRANCH   1  25
ATOM     25  C   UNL     1      44.621  77.900  42.203  0.00  0.00    +0.044 C 
BRANCH  25  26
ATOM     26  C   UNL     1      44.207  76.593  42.660  0.00  0.00    +0.004 C 
BRANCH  26  27
ATOM     27  C   UNL     1      45.113  75.435  42.539  0.00  0.00    +0.000 C 
BRANCH  27  28
ATOM     28  C   UNL     1      45.626  75.003  43.964  0.00  0.00    +0.000 C 
BRANCH  28  29
ATOM     29  C   UNL     1      46.429  73.763  43.721  0.00  0.00    +0.000 C 
BRANCH  29  30
ATOM     30  C   UNL     1      47.555  73.934  42.721  0.00  0.00    +0.000 C 
BRANCH  30  31
ATOM     31  C   UNL     1      48.829  73.437  43.286  0.00  0.00    +0.000 C 
BRANCH  31  32
ATOM     32  C   UNL     1      48.980  72.005  43.585  0.00  0.00    +0.000 C 
BRANCH  32  33
ATOM     33  C   UNL     1      50.203  71.466  44.194  0.00  0.00    +0.000 C 
BRANCH  33  35
ATOM     34  C   UNL     1      51.643  69.821  45.246  0.00  0.00    +0.000 C 
ATOM     35  C   UNL     1      50.245  70.056  44.634  0.00  0.00    +0.000 C 
ENDBRANCH  33  35
ENDBRANCH  32  33
ENDBRANCH  31  32
ENDBRANCH  30  31
ENDBRANCH  29  30
ENDBRANCH  28  29
ENDBRANCH  27  28
ENDBRANCH  26  27
ENDBRANCH  25  26
ENDBRANCH   1  25
TORSDOF 23
