REMARK  Name = Ornidazole
REMARK  4 active torsions:
REMARK  status: ('A' for Active; 'I' for Inactive)
REMARK    1  A    between atoms: C_5  and  N_12
REMARK    2  A    between atoms: N_6  and  C_7
REMARK    3  A    between atoms: C_7  and  C_8
REMARK    4  A    between atoms: C_8  and  C_9
REMARK                            x       y       z     vdW  Elec       q    Type
REMARK                         _______ _______ _______ _____ _____    ______ ____
ROOT
ATOM      1  C   UNL     1      43.982  79.461  38.259  0.00  0.00    +0.072 C 
ATOM      2  C   UNL     1      44.920  80.531  38.762  0.00  0.00    +0.122 A 
ATOM      3  N   UNL     1      44.963  81.812  38.360  0.00  0.00    -0.228 NA
ATOM      4  C   UNL     1      45.929  82.461  39.035  0.00  0.00    +0.142 A 
ATOM      5  C   UNL     1      46.522  81.563  39.897  0.00  0.00    +0.226 A 
ATOM      6  N   UNL     1      45.877  80.401  39.698  0.00  0.00    -0.294 N 
ENDROOT
BRANCH   5   7
ATOM      7  N   UNL     1      47.587  81.859  40.787  0.00  0.00    +0.076 N 
ATOM      8  O   UNL     1      48.130  82.988  40.753  0.00  0.00    -0.125 OA
ATOM      9  O   UNL     1      48.084  80.994  41.702  0.00  0.00    -0.125 OA
ENDBRANCH   5   7
BRANCH   6  10
ATOM     10  C   UNL     1      46.182  79.186  40.404  0.00  0.00    +0.143 C 
BRANCH  10  11
ATOM     11  C   UNL     1      45.085  78.765  41.346  0.00  0.00    +0.191 C 
ATOM     12  O   UNL     1      43.849  79.044  40.781  0.00  0.00    -0.220 OA
BRANCH  11  13
ATOM     13  C   UNL     1      45.119  77.324  41.719  0.00  0.00    +0.130 C 
ATOM     14 CL   UNL     1      44.503  77.203  43.405  0.00  0.00    -0.111 Cl
ENDBRANCH  11  13
ENDBRANCH  10  11
ENDBRANCH   6  10
TORSDOF 4
