REMARK  Name = Ornoprostil
REMARK  15 active torsions:
REMARK  status: ('A' for Active; 'I' for Inactive)
REMARK    1  A    between atoms: C_2  and  C_3
REMARK    2  A    between atoms: C_3  and  C_4
REMARK    3  A    between atoms: C_4  and  C_5
REMARK    4  A    between atoms: C_5  and  C_7
REMARK    5  A    between atoms: C_7  and  C_8
REMARK    6  A    between atoms: C_8  and  C_9
REMARK    7  A    between atoms: C_10  and  C_11
REMARK    8  A    between atoms: C_16  and  C_17
REMARK    9  A    between atoms: C_17  and  C_18
REMARK   10  A    between atoms: C_18  and  C_20
REMARK   11  A    between atoms: C_20  and  C_21
REMARK   12  A    between atoms: C_21  and  C_22
REMARK   13  A    between atoms: C_22  and  C_23
REMARK   14  A    between atoms: C_23  and  C_24
REMARK   15  A    between atoms: C_24  and  O_26
REMARK                            x       y       z     vdW  Elec       q    Type
REMARK                         _______ _______ _______ _____ _____    ______ ____
ROOT
ATOM      1  C   UNL     1      44.895  78.223  39.952  0.00  0.00    +0.060 C 
ATOM      2  C   UNL     1      45.770  77.424  40.912  0.00  0.00    +0.164 C 
ATOM      3  C   UNL     1      44.785  76.392  41.477  0.00  0.00    +0.098 C 
ATOM      4  C   UNL     1      43.439  76.941  41.195  0.00  0.00    +0.154 C 
ATOM      5  O   UNL     1      42.389  76.357  41.252  0.00  0.00    -0.296 OA
ATOM      6  C   UNL     1      43.633  78.361  40.826  0.00  0.00    +0.071 C 
ATOM      7  O   UNL     1      46.833  76.815  40.272  0.00  0.00    -0.222 OA
ENDROOT
BRANCH   1   9
ATOM      8  C   UNL     1      46.063  80.259  40.518  0.00  0.00    +0.002 C 
ATOM      9  C   UNL     1      45.458  79.531  39.633  0.00  0.00    -0.026 C 
BRANCH   8  10
ATOM     10  C   UNL     1      46.828  81.500  40.254  0.00  0.00    +0.174 C 
ATOM     11  O   UNL     1      46.247  82.311  39.277  0.00  0.00    -0.218 OA
BRANCH  10  12
ATOM     12  C   UNL     1      47.038  82.314  41.502  0.00  0.00    +0.037 C 
BRANCH  12  13
ATOM     13  C   UNL     1      48.207  83.262  41.406  0.00  0.00    +0.003 C 
ATOM     14  C   UNL     1      49.431  82.562  40.879  0.00  0.00    +0.000 C 
BRANCH  13  15
ATOM     15  C   UNL     1      48.435  83.966  42.723  0.00  0.00    +0.000 C 
BRANCH  15  16
ATOM     16  C   UNL     1      49.555  84.953  42.688  0.00  0.00    +0.000 C 
BRANCH  16  18
ATOM     17  C   UNL     1      50.499  84.591  44.929  0.00  0.00    +0.000 C 
ATOM     18  C   UNL     1      49.733  85.587  44.075  0.00  0.00    +0.000 C 
ENDBRANCH  16  18
ENDBRANCH  15  16
ENDBRANCH  13  15
ENDBRANCH  12  13
ENDBRANCH  10  12
ENDBRANCH   8  10
ENDBRANCH   1   9
BRANCH   6  19
ATOM     19  C   UNL     1      42.511  78.946  40.050  0.00  0.00    +0.072 C 
BRANCH  19  20
ATOM     20  C   UNL     1      42.781  78.805  38.587  0.00  0.00    +0.151 C 
ATOM     21  O   UNL     1      43.422  79.669  38.065  0.00  0.00    -0.296 OA
BRANCH  20  22
ATOM     22  C   UNL     1      42.268  77.651  37.861  0.00  0.00    +0.065 C 
BRANCH  22  23
ATOM     23  C   UNL     1      40.826  77.536  37.582  0.00  0.00    +0.008 C 
BRANCH  23  24
ATOM     24  C   UNL     1      40.318  76.442  36.718  0.00  0.00    +0.012 C 
BRANCH  24  25
ATOM     25  C   UNL     1      40.210  75.079  37.258  0.00  0.00    +0.110 C 
BRANCH  25  26
ATOM     26  C   UNL     1      38.928  74.460  36.755  0.00  0.00    +0.317 C 
ATOM     27  O   UNL     1      38.011  74.245  37.581  0.00  0.00    -0.250 OA
BRANCH  26  28
ATOM     28  O   UNL     1      38.716  74.120  35.448  0.00  0.00    -0.444 OA
ATOM     29  C   UNL     1      38.318  72.791  35.113  0.00  0.00    +0.256 C 
ENDBRANCH  26  28
ENDBRANCH  25  26
ENDBRANCH  24  25
ENDBRANCH  23  24
ENDBRANCH  22  23
ENDBRANCH  20  22
ENDBRANCH  19  20
ENDBRANCH   6  19
TORSDOF 15
