REMARK  Name = Oseltamivir
REMARK  8 active torsions:
REMARK  status: ('A' for Active; 'I' for Inactive)
REMARK    1  A    between atoms: C_2  and  C_3
REMARK    2  A    between atoms: C_3  and  C_4
REMARK    3  A    between atoms: C_3  and  O_6
REMARK    4  A    between atoms: O_6  and  C_7
REMARK    5  A    between atoms: C_9  and  C_18
REMARK    6  A    between atoms: C_12  and  N_13
REMARK    7  A    between atoms: C_18  and  O_20
REMARK    8  A    between atoms: O_20  and  C_21
REMARK                            x       y       z     vdW  Elec       q    Type
REMARK                         _______ _______ _______ _____ _____    ______ ____
ROOT
ATOM      1  C   UNL     1      46.788  81.806  41.642  0.00  0.00    +0.158 C 
ATOM      2  C   UNL     1      45.914  80.640  41.412  0.00  0.00    +0.007 C 
ATOM      3  C   UNL     1      45.448  80.199  40.281  0.00  0.00    +0.053 C 
ATOM      4  C   UNL     1      45.770  80.871  39.008  0.00  0.00    +0.054 C 
ATOM      5  C   UNL     1      46.160  82.298  39.278  0.00  0.00    +0.119 C 
ATOM      6  C   UNL     1      47.242  82.376  40.338  0.00  0.00    +0.144 C 
ATOM      7  N   UNL     1      46.589  82.941  38.041  0.00  0.00    -0.131 NA
ENDROOT
BRANCH   6   8
ATOM      8  N   UNL     1      48.496  81.850  39.883  0.00  0.00    -0.203 NA
ATOM      9  C   UNL     1      49.537  82.703  39.422  0.00  0.00    +0.242 C 
ATOM     10  O   UNL     1      49.215  83.891  39.106  0.00  0.00    -0.273 OA
ATOM     11  C   UNL     1      50.953  82.232  39.312  0.00  0.00    +0.096 C 
ENDBRANCH   6   8
BRANCH   3  12
ATOM     12  C   UNL     1      44.570  78.990  40.261  0.00  0.00    +0.337 C 
ATOM     13  O   UNL     1      44.442  78.329  41.306  0.00  0.00    -0.245 OA
BRANCH  12  14
ATOM     14  O   UNL     1      43.931  78.631  39.116  0.00  0.00    -0.446 OA
BRANCH  14  15
ATOM     15  C   UNL     1      42.760  77.813  39.087  0.00  0.00    +0.209 C 
ATOM     16  C   UNL     1      41.769  78.505  38.178  0.00  0.00    +0.051 C 
ENDBRANCH  14  15
ENDBRANCH  12  14
ENDBRANCH   3  12
BRANCH   1  17
ATOM     17  O   UNL     1      47.773  81.568  42.546  0.00  0.00    -0.353 OA
BRANCH  17  18
ATOM     18  C   UNL     1      48.540  82.730  42.743  0.00  0.00    +0.116 C 
BRANCH  18  20
ATOM     19  C   UNL     1      50.348  81.036  43.296  0.00  0.00    +0.003 C 
ATOM     20  C   UNL     1      49.983  82.419  42.909  0.00  0.00    +0.030 C 
ENDBRANCH  18  20
BRANCH  18  21
ATOM     21  C   UNL     1      47.916  83.570  43.816  0.00  0.00    +0.030 C 
ATOM     22  C   UNL     1      46.931  84.588  43.384  0.00  0.00    +0.003 C 
ENDBRANCH  18  21
ENDBRANCH  17  18
ENDBRANCH   1  17
TORSDOF 8
