REMARK  Name = Osilodrostat
REMARK  2 active torsions:
REMARK  status: ('A' for Active; 'I' for Inactive)
REMARK    1  A    between atoms: C_8  and  C_9
REMARK    2  A    between atoms: C_12  and  C_15
REMARK                            x       y       z     vdW  Elec       q    Type
REMARK                         _______ _______ _______ _____ _____    ______ ____
ROOT
ATOM      1  C   UNL     1      48.176  81.815  41.430  0.00  0.00    +0.026 A 
ATOM      2  C   UNL     1      49.516  81.888  41.690  0.00  0.00    +0.139 A 
ATOM      3  C   UNL     1      50.008  82.912  42.495  0.00  0.00    +0.040 A 
ATOM      4  C   UNL     1      49.189  83.871  43.052  0.00  0.00    +0.071 A 
ATOM      5  C   UNL     1      47.834  83.778  42.776  0.00  0.00    +0.010 A 
ATOM      6  C   UNL     1      47.321  82.775  41.981  0.00  0.00    +0.000 A 
ATOM      7  F   UNL     1      50.333  80.965  41.160  0.00  0.00    -0.204 F 
ENDROOT
BRANCH   1  15
ATOM      8  C   UNL     1      47.009  79.629  41.337  0.00  0.00    +0.034 C 
ATOM      9  C   UNL     1      45.564  79.582  40.966  0.00  0.00    +0.048 C 
ATOM     10  C   UNL     1      45.433  80.610  39.895  0.00  0.00    +0.058 A 
ATOM     11  C   UNL     1      44.463  81.114  39.023  0.00  0.00    +0.113 A 
ATOM     12  N   UNL     1      45.096  82.056  38.325  0.00  0.00    -0.223 NA
ATOM     13  C   UNL     1      46.365  82.160  38.704  0.00  0.00    +0.179 A 
ATOM     14  N   UNL     1      46.573  81.240  39.701  0.00  0.00    -0.310 N 
ATOM     15  C   UNL     1      47.593  80.746  40.579  0.00  0.00    +0.112 C 
ENDBRANCH   1  15
BRANCH   4  16
ATOM     16  C   UNL     1      49.708  84.931  43.886  0.00  0.00    +0.100 C 
ATOM     17  N   UNL     1      50.133  85.781  44.580  0.00  0.00    -0.191 NA
ENDBRANCH   4  16
TORSDOF 2
