REMARK  Name = Osimertinib
REMARK  9 active torsions:
REMARK  status: ('A' for Active; 'I' for Inactive)
REMARK    1  A    between atoms: C_4  and  C_11
REMARK    2  A    between atoms: N_17  and  C_18
REMARK    3  A    between atoms: C_19  and  O_36
REMARK    4  A    between atoms: C_21  and  N_29
REMARK    5  A    between atoms: C_22  and  N_24
REMARK    6  A    between atoms: C_25  and  C_27
REMARK    7  A    between atoms: N_29  and  C_31
REMARK    8  A    between atoms: C_31  and  C_32
REMARK    9  A    between atoms: C_32  and  N_33
REMARK                            x       y       z     vdW  Elec       q    Type
REMARK                         _______ _______ _______ _____ _____    ______ ____
ROOT
ATOM      1  C   UNL     1      43.706  78.820  38.655  0.00  0.00    +0.109 A 
ATOM      2  C   UNL     1      42.379  78.455  38.417  0.00  0.00    +0.155 A 
ATOM      3  C   UNL     1      41.842  77.333  38.990  0.00  0.00    +0.054 A 
ATOM      4  C   UNL     1      42.578  76.495  39.836  0.00  0.00    +0.067 A 
ATOM      5  C   UNL     1      43.880  76.864  40.061  0.00  0.00    +0.088 A 
ATOM      6  C   UNL     1      44.442  78.015  39.478  0.00  0.00    +0.038 A 
ENDROOT
BRANCH   1  13
ATOM      7  C   UNL     1      46.668  81.571  40.240  0.00  0.00    +0.087 A 
ATOM      8  N   UNL     1      45.839  80.703  39.631  0.00  0.00    -0.212 NA
ATOM      9  C   UNL     1      45.024  80.977  38.597  0.00  0.00    +0.241 A 
ATOM     10  N   UNL     1      45.085  82.256  38.173  0.00  0.00    -0.211 NA
ATOM     11  C   UNL     1      45.874  83.173  38.716  0.00  0.00    +0.103 A 
ATOM     12  C   UNL     1      46.697  82.846  39.778  0.00  0.00    +0.040 A 
ATOM     13  N   UNL     1      44.199  79.974  38.045  0.00  0.00    -0.175 NA
BRANCH   7  17
ATOM     14  C   UNL     1      48.236  78.561  43.880  0.00  0.00    +0.130 C 
ATOM     15  N   UNL     1      48.127  79.658  42.921  0.00  0.00    -0.324 N 
ATOM     16  C   UNL     1      47.199  79.853  41.991  0.00  0.00    +0.077 A 
ATOM     17  C   UNL     1      47.502  81.050  41.294  0.00  0.00    +0.036 A 
ATOM     18  C   UNL     1      48.640  81.556  41.848  0.00  0.00    +0.019 A 
ATOM     19  C   UNL     1      49.401  82.693  41.613  0.00  0.00    +0.002 A 
ATOM     20  C   UNL     1      50.513  82.916  42.387  0.00  0.00    +0.000 A 
ATOM     21  C   UNL     1      50.934  82.085  43.394  0.00  0.00    +0.001 A 
ATOM     22  C   UNL     1      50.152  80.964  43.601  0.00  0.00    +0.017 A 
ATOM     23  C   UNL     1      49.024  80.672  42.867  0.00  0.00    +0.060 A 
ENDBRANCH   7  17
ENDBRANCH   1  13
BRANCH   5  24
ATOM     24  N   UNL     1      44.705  76.069  40.900  0.00  0.00    -0.174 NA
ATOM     25  C   UNL     1      46.115  76.188  40.862  0.00  0.00    +0.269 C 
ATOM     26  O   UNL     1      46.646  77.226  40.365  0.00  0.00    -0.268 OA
BRANCH  25  27
ATOM     27  C   UNL     1      46.987  75.153  41.377  0.00  0.00    +0.060 C 
ATOM     28  C   UNL     1      48.296  75.243  41.264  0.00  0.00    +0.005 C 
ENDBRANCH  25  27
ENDBRANCH   5  24
BRANCH   4  29
ATOM     29  N   UNL     1      41.950  75.355  40.398  0.00  0.00    -0.303 N 
ATOM     30  C   UNL     1      41.551  75.391  41.784  0.00  0.00    +0.112 C 
BRANCH  29  31
ATOM     31  C   UNL     1      41.696  74.168  39.625  0.00  0.00    +0.108 C 
BRANCH  31  32
ATOM     32  C   UNL     1      40.458  74.274  38.788  0.00  0.00    +0.094 C 
BRANCH  32  33
ATOM     33  N   UNL     1      40.197  73.048  38.049  0.00  0.00    -0.269 NA
ATOM     34  C   UNL     1      40.238  73.259  36.616  0.00  0.00    +0.090 C 
ATOM     35  C   UNL     1      38.875  72.550  38.394  0.00  0.00    +0.090 C 
ENDBRANCH  32  33
ENDBRANCH  31  32
ENDBRANCH  29  31
ENDBRANCH   4  29
BRANCH   2  36
ATOM     36  O   UNL     1      41.621  79.248  37.594  0.00  0.00    -0.470 OA
ATOM     37  C   UNL     1      40.304  78.894  37.221  0.00  0.00    +0.253 C 
ENDBRANCH   2  36
TORSDOF 9
