REMARK  Name = Oteseconazole
REMARK  9 active torsions:
REMARK  status: ('A' for Active; 'I' for Inactive)
REMARK    1  A    between atoms: C_3  and  O_32
REMARK    2  A    between atoms: C_6  and  C_7
REMARK    3  A    between atoms: C_10  and  C_13
REMARK    4  A    between atoms: C_13  and  C_14
REMARK    5  A    between atoms: C_14  and  C_15
REMARK    6  A    between atoms: C_14  and  C_21
REMARK    7  A    between atoms: C_15  and  N_16
REMARK    8  A    between atoms: O_32  and  C_33
REMARK    9  A    between atoms: C_33  and  C_34
REMARK                            x       y       z     vdW  Elec       q    Type
REMARK                         _______ _______ _______ _____ _____    ______ ____
ROOT
ATOM      1  C   UNL     1      47.479  80.360  42.156  0.00  0.00    +0.329 C 
ATOM      2  F   UNL     1      47.237  80.364  43.572  0.00  0.00    -0.195 F 
ATOM      3  F   UNL     1      48.581  79.487  42.044  0.00  0.00    -0.195 F 
ENDROOT
BRANCH   1   7
ATOM      4  C   UNL     1      44.193  78.452  40.222  0.00  0.00    +0.019 A 
ATOM      5  C   UNL     1      44.324  79.817  40.271  0.00  0.00    +0.099 A 
ATOM      6  N   UNL     1      45.361  80.376  40.899  0.00  0.00    -0.243 NA
ATOM      7  C   UNL     1      46.345  79.697  41.523  0.00  0.00    +0.122 A 
ATOM      8  C   UNL     1      46.226  78.302  41.482  0.00  0.00    +0.020 A 
ATOM      9  C   UNL     1      45.173  77.689  40.845  0.00  0.00    +0.003 A 
BRANCH   4  15
ATOM     10  C   UNL     1      42.716  76.513  39.916  0.00  0.00    +0.003 A 
ATOM     11  C   UNL     1      41.668  75.844  39.307  0.00  0.00    +0.037 A 
ATOM     12  C   UNL     1      40.958  76.473  38.293  0.00  0.00    +0.139 A 
ATOM     13  C   UNL     1      41.309  77.748  37.914  0.00  0.00    +0.037 A 
ATOM     14  C   UNL     1      42.368  78.385  38.550  0.00  0.00    +0.003 A 
ATOM     15  C   UNL     1      43.084  77.789  39.552  0.00  0.00    +0.002 A 
BRANCH  12  16
ATOM     16  O   UNL     1      39.902  75.839  37.657  0.00  0.00    -0.467 OA
BRANCH  16  17
ATOM     17  C   UNL     1      40.012  74.495  37.257  0.00  0.00    +0.308 C 
BRANCH  17  18
ATOM     18  C   UNL     1      38.814  74.201  36.346  0.00  0.00    +0.438 C 
ATOM     19  F   UNL     1      37.848  73.489  37.049  0.00  0.00    -0.166 F 
ATOM     20  F   UNL     1      38.312  75.379  35.830  0.00  0.00    -0.166 F 
ATOM     21  F   UNL     1      39.310  73.396  35.328  0.00  0.00    -0.166 F 
ENDBRANCH  17  18
ENDBRANCH  16  17
ENDBRANCH  12  16
ENDBRANCH   4  15
ENDBRANCH   1   7
BRANCH   1  22
ATOM     22  C   UNL     1      47.942  81.676  41.750  0.00  0.00    +0.231 C 
ATOM     23  O   UNL     1      46.722  82.492  41.715  0.00  0.00    -0.213 OA
BRANCH  22  24
ATOM     24  C   UNL     1      48.846  82.494  42.533  0.00  0.00    +0.040 A 
ATOM     25  C   UNL     1      48.380  83.463  43.372  0.00  0.00    +0.141 A 
ATOM     26  C   UNL     1      49.237  84.233  44.129  0.00  0.00    +0.059 A 
ATOM     27  C   UNL     1      50.615  84.071  44.081  0.00  0.00    +0.142 A 
ATOM     28  C   UNL     1      51.107  83.100  43.238  0.00  0.00    +0.030 A 
ATOM     29  C   UNL     1      50.227  82.334  42.484  0.00  0.00    +0.003 A 
ATOM     30  F   UNL     1      51.458  84.824  44.823  0.00  0.00    -0.204 F 
ATOM     31  F   UNL     1      47.058  83.809  43.500  0.00  0.00    -0.204 F 
ENDBRANCH  22  24
BRANCH  22  32
ATOM     32  C   UNL     1      48.294  81.606  40.261  0.00  0.00    +0.171 C 
BRANCH  32  33
ATOM     33  N   UNL     1      47.500  82.311  39.336  0.00  0.00    -0.208 N 
ATOM     34  C   UNL     1      47.363  81.875  38.028  0.00  0.00    +0.222 A 
ATOM     35  N   UNL     1      46.560  82.716  37.372  0.00  0.00    -0.105 NA
ATOM     36  N   UNL     1      46.190  83.647  38.197  0.00  0.00    -0.023 NA
ATOM     37  N   UNL     1      46.752  83.391  39.340  0.00  0.00    -0.043 NA
ENDBRANCH  32  33
ENDBRANCH  22  32
ENDBRANCH   1  22
TORSDOF 9
