REMARK  Name = Otilonium_bromide
REMARK  17 active torsions:
REMARK  status: ('A' for Active; 'I' for Inactive)
REMARK    1  A    between atoms: C_2  and  C_3
REMARK    2  A    between atoms: C_3  and  C_4
REMARK    3  A    between atoms: C_4  and  C_5
REMARK    4  A    between atoms: C_5  and  C_6
REMARK    5  A    between atoms: C_6  and  C_7
REMARK    6  A    between atoms: C_7  and  C_8
REMARK    7  A    between atoms: C_8  and  O_9
REMARK    8  A    between atoms: O_9  and  C_10
REMARK    9  A    between atoms: C_15  and  C_16
REMARK   10  A    between atoms: N_18  and  C_19
REMARK   11  A    between atoms: C_22  and  C_25
REMARK   12  A    between atoms: C_25  and  O_27
REMARK   13  A    between atoms: O_27  and  C_28
REMARK   14  A    between atoms: C_28  and  C_29
REMARK   15  A    between atoms: C_29  and  N_30
REMARK   16  A    between atoms: N_30  and  C_32
REMARK   17  A    between atoms: N_30  and  C_34
REMARK                            x       y       z     vdW  Elec       q    Type
REMARK                         _______ _______ _______ _____ _____    ______ ____
ROOT
ATOM      1  C   UNL     1      42.490  76.412  41.068  0.00  0.00    +0.272 C 
ATOM      2  O   UNL     1      41.421  75.699  41.282  0.00  0.00    -0.268 OA
ATOM      3  N   UNL     1      42.557  77.133  39.871  0.00  0.00    -0.175 NA
ENDROOT
BRANCH   3   4
ATOM      4  C   UNL     1      41.431  77.028  38.973  0.00  0.00    +0.074 A 
ATOM      5  C   UNL     1      41.340  76.062  37.998  0.00  0.00    +0.017 A 
ATOM      6  C   UNL     1      40.230  75.992  37.153  0.00  0.00    +0.008 A 
ATOM      7  C   UNL     1      39.186  76.888  37.263  0.00  0.00    +0.076 A 
ATOM      8  C   UNL     1      39.290  77.852  38.245  0.00  0.00    +0.008 A 
ATOM      9  C   UNL     1      40.386  77.921  39.081  0.00  0.00    +0.017 A 
BRANCH   7  10
ATOM     10  C   UNL     1      38.014  76.832  36.395  0.00  0.00    +0.341 C 
ATOM     11  O   UNL     1      37.103  77.684  36.554  0.00  0.00    -0.245 OA
BRANCH  10  12
ATOM     12  O   UNL     1      37.843  75.888  35.398  0.00  0.00    -0.448 OA
BRANCH  12  13
ATOM     13  C   UNL     1      36.676  75.925  34.623  0.00  0.00    +0.187 C 
BRANCH  13  14
ATOM     14  C   UNL     1      36.581  74.874  33.580  0.00  0.00    -0.025 C 
BRANCH  14  15
ATOM     15  N   UNL     1      37.622  74.876  32.585  0.00  0.00    +0.391 N 
ATOM     16  C   UNL     1      37.568  73.597  31.901  0.00  0.00    -0.096 C 
BRANCH  15  17
ATOM     17  C   UNL     1      38.941  74.993  33.182  0.00  0.00    -0.073 C 
ATOM     18  C   UNL     1      40.023  74.534  32.222  0.00  0.00    -0.024 C 
ENDBRANCH  15  17
BRANCH  15  19
ATOM     19  C   UNL     1      37.448  75.911  31.596  0.00  0.00    -0.073 C 
ATOM     20  C   UNL     1      36.899  75.408  30.295  0.00  0.00    -0.024 C 
ENDBRANCH  15  19
ENDBRANCH  14  15
ENDBRANCH  13  14
ENDBRANCH  12  13
ENDBRANCH  10  12
ENDBRANCH   7  10
ENDBRANCH   3   4
BRANCH   1  26
ATOM     21  C   UNL     1      44.695  77.072  42.058  0.00  0.00    +0.143 A 
ATOM     22  C   UNL     1      45.624  76.978  43.112  0.00  0.00    +0.037 A 
ATOM     23  C   UNL     1      45.357  76.196  44.209  0.00  0.00    +0.003 A 
ATOM     24  C   UNL     1      44.182  75.504  44.276  0.00  0.00    +0.000 A 
ATOM     25  C   UNL     1      43.288  75.603  43.242  0.00  0.00    +0.008 A 
ATOM     26  C   UNL     1      43.499  76.384  42.094  0.00  0.00    +0.089 A 
BRANCH  21  27
ATOM     27  O   UNL     1      44.940  77.837  40.962  0.00  0.00    -0.475 OA
BRANCH  27  28
ATOM     28  C   UNL     1      46.032  78.644  40.699  0.00  0.00    +0.205 C 
BRANCH  28  29
ATOM     29  C   UNL     1      46.224  79.835  41.572  0.00  0.00    +0.047 C 
BRANCH  29  30
ATOM     30  C   UNL     1      47.494  80.574  41.135  0.00  0.00    +0.004 C 
BRANCH  30  31
ATOM     31  C   UNL     1      47.654  81.758  42.040  0.00  0.00    +0.000 C 
BRANCH  31  32
ATOM     32  C   UNL     1      48.873  82.543  41.702  0.00  0.00    +0.000 C 
BRANCH  32  33
ATOM     33  C   UNL     1      48.797  83.060  40.303  0.00  0.00    +0.000 C 
BRANCH  33  35
ATOM     34  C   UNL     1      50.115  85.016  40.952  0.00  0.00    +0.000 C 
ATOM     35  C   UNL     1      50.051  83.869  39.964  0.00  0.00    +0.000 C 
ENDBRANCH  33  35
ENDBRANCH  32  33
ENDBRANCH  31  32
ENDBRANCH  30  31
ENDBRANCH  29  30
ENDBRANCH  28  29
ENDBRANCH  27  28
ENDBRANCH  21  27
ENDBRANCH   1  26
TORSDOF 17
REMARK  Name = Otilonium_bromide
REMARK  17 active torsions:
REMARK  status: ('A' for Active; 'I' for Inactive)
REMARK    1  A    between atoms: C_2  and  C_3
REMARK    2  A    between atoms: C_3  and  C_4
REMARK    3  A    between atoms: C_4  and  C_5
REMARK    4  A    between atoms: C_5  and  C_6
REMARK    5  A    between atoms: C_6  and  C_7
REMARK    6  A    between atoms: C_7  and  C_8
REMARK    7  A    between atoms: C_8  and  O_9
REMARK    8  A    between atoms: O_9  and  C_10
REMARK    9  A    between atoms: C_15  and  C_16
REMARK   10  A    between atoms: N_18  and  C_19
REMARK   11  A    between atoms: C_22  and  C_25
REMARK   12  A    between atoms: C_25  and  O_27
REMARK   13  A    between atoms: O_27  and  C_28
REMARK   14  A    between atoms: C_28  and  C_29
REMARK   15  A    between atoms: C_29  and  N_30
REMARK   16  A    between atoms: N_30  and  C_32
REMARK   17  A    between atoms: N_30  and  C_34
REMARK                            x       y       z     vdW  Elec       q    Type
REMARK                         _______ _______ _______ _____ _____    ______ ____
ROOT
ATOM      1 BR   UNL     1      42.650  77.932  37.911  0.00  0.00    +0.000 Br
ENDROOT
TORSDOF 0
