REMARK  Name = Oxacillin
REMARK  4 active torsions:
REMARK  status: ('A' for Active; 'I' for Inactive)
REMARK    1  A    between atoms: C_3  and  C_13
REMARK    2  A    between atoms: C_4  and  C_7
REMARK    3  A    between atoms: N_15  and  CA_16
REMARK    4  A    between atoms: CA_21  and  C_26
REMARK                            x       y       z     vdW  Elec       q    Type
REMARK                         _______ _______ _______ _____ _____    ______ ____
ROOT
ATOM      1  C   UNL     1      45.986  80.685  40.675  0.00  0.00    +0.270 C 
ATOM      2  O   UNL     1      46.161  81.967  40.681  0.00  0.00    -0.268 OA
ATOM      3  N   UNL     1      46.753  80.011  41.654  0.00  0.00    -0.191 NA
ENDROOT
BRANCH   3   4
ATOM      4  CA  UNL     1      47.773  80.675  42.397  0.00  0.00    +0.200 C 
ATOM      5  C   UNL     1      48.194  82.024  41.950  0.00  0.00    +0.153 C 
ATOM      6  N   UNL     1      49.504  81.617  42.501  0.00  0.00    -0.259 N 
ATOM      7  C   UNL     1      49.164  80.369  41.959  0.00  0.00    +0.249 C 
ATOM      8  O   UNL     1      49.789  79.457  41.381  0.00  0.00    -0.273 OA
ATOM      9  CA  UNL     1      50.223  82.608  43.168  0.00  0.00    +0.189 C 
ATOM     10  C   UNL     1      49.563  83.931  43.154  0.00  0.00    +0.068 C 
ATOM     11  S   UNL     1      47.797  83.444  42.997  0.00  0.00    -0.118 S 
ATOM     12  C   UNL     1      49.687  84.715  44.426  0.00  0.00    +0.013 C 
ATOM     13  C   UNL     1      49.971  84.802  41.988  0.00  0.00    +0.013 C 
BRANCH   9  14
ATOM     14  C   UNL     1      51.592  82.715  42.566  0.00  0.00    +0.383 C 
ATOM     15  O   UNL     1      52.552  82.972  43.316  0.00  0.00    -0.244 OA
ATOM     16  OXT UNL     1      51.825  82.541  41.217  0.00  0.00    -0.244 OA
ENDBRANCH   9  14
ENDBRANCH   3   4
BRANCH   1  19
ATOM     17  C   UNL     1      45.026  81.873  37.876  0.00  0.00    +0.076 C 
ATOM     18  C   UNL     1      44.650  80.594  38.523  0.00  0.00    +0.159 A 
ATOM     19  C   UNL     1      45.079  80.109  39.728  0.00  0.00    +0.109 A 
ATOM     20  C   UNL     1      44.440  78.899  39.865  0.00  0.00    +0.127 A 
ATOM     21  N   UNL     1      43.665  78.692  38.777  0.00  0.00    -0.077 NA
ATOM     22  O   UNL     1      43.800  79.702  37.993  0.00  0.00    -0.358 OA
BRANCH  20  23
ATOM     23  C   UNL     1      44.520  77.958  40.962  0.00  0.00    +0.021 A 
ATOM     24  C   UNL     1      43.403  77.795  41.789  0.00  0.00    +0.002 A 
ATOM     25  C   UNL     1      43.388  76.898  42.838  0.00  0.00    +0.000 A 
ATOM     26  C   UNL     1      44.491  76.121  43.108  0.00  0.00    +0.000 A 
ATOM     27  C   UNL     1      45.595  76.269  42.306  0.00  0.00    +0.000 A 
ATOM     28  C   UNL     1      45.597  77.174  41.255  0.00  0.00    +0.002 A 
ENDBRANCH  20  23
ENDBRANCH   1  19
TORSDOF 4
