REMARK  Name = Oxamniquine
REMARK  5 active torsions:
REMARK  status: ('A' for Active; 'I' for Inactive)
REMARK    1  A    between atoms: C_2  and  N_4
REMARK    2  A    between atoms: N_4  and  C_5
REMARK    3  A    between atoms: C_5  and  C_6
REMARK    4  A    between atoms: C_11  and  C_19
REMARK    5  A    between atoms: C_12  and  N_16
REMARK                            x       y       z     vdW  Elec       q    Type
REMARK                         _______ _______ _______ _____ _____    ______ ____
ROOT
ATOM      1  C   UNL     1      43.136  77.402  39.128  0.00  0.00    +0.110 C 
ATOM      2  C   UNL     1      44.094  76.708  40.080  0.00  0.00    +0.028 C 
ATOM      3  C   UNL     1      44.474  77.612  41.206  0.00  0.00    +0.029 C 
ATOM      4  C   UNL     1      45.114  78.844  40.696  0.00  0.00    -0.007 A 
ATOM      5  C   UNL     1      46.160  79.380  41.389  0.00  0.00    -0.003 A 
ATOM      6  C   UNL     1      46.769  80.540  40.926  0.00  0.00    +0.033 A 
ATOM      7  C   UNL     1      46.286  81.117  39.767  0.00  0.00    +0.143 A 
ATOM      8  C   UNL     1      45.208  80.535  39.081  0.00  0.00    +0.040 A 
ATOM      9  C   UNL     1      44.616  79.401  39.538  0.00  0.00    +0.063 A 
ATOM     10  N   UNL     1      43.520  78.766  38.881  0.00  0.00    -0.238 NA
ENDROOT
BRANCH   7  11
ATOM     11  N   UNL     1      46.854  82.282  39.236  0.00  0.00    +0.057 N 
ATOM     12  O   UNL     1      47.670  83.003  39.809  0.00  0.00    -0.126 OA
ATOM     13  O   UNL     1      46.467  82.671  37.957  0.00  0.00    -0.126 OA
ENDBRANCH   7  11
BRANCH   6  14
ATOM     14  C   UNL     1      47.892  81.115  41.684  0.00  0.00    +0.210 C 
ATOM     15  O   UNL     1      49.050  80.315  41.628  0.00  0.00    -0.215 OA
ENDBRANCH   6  14
BRANCH   1  16
ATOM     16  C   UNL     1      41.757  77.299  39.745  0.00  0.00    +0.110 C 
BRANCH  16  17
ATOM     17  N   UNL     1      40.716  77.799  38.918  0.00  0.00    -0.218 NA
BRANCH  17  19
ATOM     18  C   UNL     1      39.518  77.707  36.868  0.00  0.00    +0.019 C 
ATOM     19  C   UNL     1      40.568  77.011  37.738  0.00  0.00    +0.073 C 
ATOM     20  C   UNL     1      40.067  75.632  38.135  0.00  0.00    +0.019 C 
ENDBRANCH  17  19
ENDBRANCH  16  17
ENDBRANCH   1  16
TORSDOF 5
