REMARK  Name = Oxandrolone
REMARK  0 active torsions:
REMARK  status: ('A' for Active; 'I' for Inactive)
REMARK                            x       y       z     vdW  Elec       q    Type
REMARK                         _______ _______ _______ _____ _____    ______ ____
ROOT
ATOM      1  C   UNL     1      49.597  81.909  44.676  0.00  0.00    +0.002 C 
ATOM      2  C   UNL     1      49.599  81.992  43.138  0.00  0.00    +0.026 C 
ATOM      3  C   UNL     1      49.669  80.624  42.615  0.00  0.00    +0.002 C 
ATOM      4  C   UNL     1      48.725  80.235  41.535  0.00  0.00    +0.000 C 
ATOM      5  C   UNL     1      47.433  80.994  41.620  0.00  0.00    +0.003 C 
ATOM      6  C   UNL     1      47.864  82.457  41.439  0.00  0.00    +0.000 C 
ATOM      7  C   UNL     1      48.430  82.823  42.762  0.00  0.00    +0.002 C 
ATOM      8  C   UNL     1      48.867  84.249  42.893  0.00  0.00    +0.003 C 
ATOM      9  C   UNL     1      50.286  84.207  42.409  0.00  0.00    +0.030 C 
ATOM     10  C   UNL     1      50.796  82.853  42.791  0.00  0.00    +0.127 C 
ATOM     11  C   UNL     1      51.602  82.296  41.648  0.00  0.00    +0.033 C 
ATOM     12  O   UNL     1      51.667  83.017  43.867  0.00  0.00    -0.226 OA
ATOM     13  C   UNL     1      46.747  83.292  40.958  0.00  0.00    +0.000 C 
ATOM     14  C   UNL     1      46.344  82.832  39.577  0.00  0.00    +0.001 C 
ATOM     15  C   UNL     1      46.378  81.360  39.389  0.00  0.00    +0.015 C 
ATOM     16  C   UNL     1      46.390  80.569  40.672  0.00  0.00    +0.041 C 
ATOM     17  C   UNL     1      46.622  79.105  40.270  0.00  0.00    +0.208 C 
ATOM     18  O   UNL     1      45.467  78.716  39.545  0.00  0.00    -0.448 OA
ATOM     19  C   UNL     1      44.732  79.600  38.781  0.00  0.00    +0.317 C 
ATOM     20  O   UNL     1      43.634  79.253  38.274  0.00  0.00    -0.250 OA
ATOM     21  C   UNL     1      45.200  80.970  38.531  0.00  0.00    +0.110 C 
ATOM     22  C   UNL     1      45.032  80.598  41.358  0.00  0.00    +0.004 C 
ENDROOT
TORSDOF 0
