REMARK  Name = Oxantel_pamoate
REMARK  6 active torsions:
REMARK  status: ('A' for Active; 'I' for Inactive)
REMARK    1  A    between atoms: C_7  and  C_8
REMARK    2  A    between atoms: C_9  and  C_10
REMARK    3  A    between atoms: C_24  and  C_43
REMARK    4  A    between atoms: C_26  and  C_27
REMARK    5  A    between atoms: C_27  and  C_28
REMARK    6  A    between atoms: C_30  and  C_38
REMARK                            x       y       z     vdW  Elec       q    Type
REMARK                         _______ _______ _______ _____ _____    ______ ____
ROOT
ATOM      1  C   UNL     1      47.718  80.780  41.112  0.00  0.00    +0.034 C 
ATOM      2  C   UNL     1      47.768  81.414  42.252  0.00  0.00    +0.003 C 
ENDROOT
BRANCH   1   9
ATOM      3  C   UNL     1      47.360  79.675  38.289  0.00  0.00    +0.114 C 
ATOM      4  N   UNL     1      46.346  79.776  39.296  0.00  0.00    -0.292 N 
ATOM      5  C   UNL     1      44.911  79.761  38.939  0.00  0.00    +0.094 C 
ATOM      6  C   UNL     1      44.147  78.952  39.922  0.00  0.00    +0.048 C 
ATOM      7  C   UNL     1      45.036  78.189  40.883  0.00  0.00    +0.129 C 
ATOM      8  N   UNL     1      46.036  79.073  41.476  0.00  0.00    -0.256 NA
ATOM      9  C   UNL     1      46.694  79.876  40.653  0.00  0.00    +0.127 C 
ENDBRANCH   1   9
BRANCH   2  10
ATOM     10  C   UNL     1      48.949  82.074  42.755  0.00  0.00    +0.003 A 
ATOM     11  C   UNL     1      49.092  83.433  42.864  0.00  0.00    +0.042 A 
ATOM     12  C   UNL     1      50.266  83.999  43.361  0.00  0.00    +0.196 A 
ATOM     13  C   UNL     1      51.316  83.208  43.757  0.00  0.00    +0.042 A 
ATOM     14  C   UNL     1      51.205  81.850  43.661  0.00  0.00    +0.003 A 
ATOM     15  C   UNL     1      50.045  81.311  43.171  0.00  0.00    +0.000 A 
ATOM     16  O   UNL     1      50.371  85.369  43.454  0.00  0.00    -0.287 OA
ENDBRANCH   2  10
TORSDOF 2
REMARK  Name = Oxantel_pamoate
REMARK  6 active torsions:
REMARK  status: ('A' for Active; 'I' for Inactive)
REMARK    1  A    between atoms: C_7  and  C_8
REMARK    2  A    between atoms: C_9  and  C_10
REMARK    3  A    between atoms: C_24  and  C_43
REMARK    4  A    between atoms: C_26  and  C_27
REMARK    5  A    between atoms: C_27  and  C_28
REMARK    6  A    between atoms: C_30  and  C_38
REMARK                            x       y       z     vdW  Elec       q    Type
REMARK                         _______ _______ _______ _____ _____    ______ ____
ROOT
ATOM      1  C   UNL     1      48.228  79.832  41.941  0.00  0.00    +0.059 C 
ENDROOT
BRANCH   1  11
ATOM      2  C   UNL     1      44.173  76.904  42.640  0.00  0.00    -0.000 A 
ATOM      3  C   UNL     1      45.459  76.979  43.133  0.00  0.00    -0.000 A 
ATOM      4  C   UNL     1      46.377  77.935  42.724  0.00  0.00    -0.000 A 
ATOM      5  C   UNL     1      46.000  78.865  41.776  0.00  0.00    -0.001 A 
ATOM      6  C   UNL     1      44.711  78.803  41.270  0.00  0.00    +0.000 A 
ATOM      7  C   UNL     1      43.798  77.834  41.692  0.00  0.00    -0.000 A 
ATOM      8  C   UNL     1      44.316  79.723  40.325  0.00  0.00    +0.010 A 
ATOM      9  C   UNL     1      45.160  80.712  39.860  0.00  0.00    +0.118 A 
ATOM     10  C   UNL     1      46.443  80.743  40.389  0.00  0.00    +0.198 A 
ATOM     11  C   UNL     1      46.885  79.849  41.332  0.00  0.00    +0.021 A 
ATOM     12  O   UNL     1      47.318  81.743  39.928  0.00  0.00    -0.287 OA
BRANCH   9  13
ATOM     13  C   UNL     1      44.665  81.638  38.875  0.00  0.00    +0.391 C 
ATOM     14  O   UNL     1      45.352  82.613  38.522  0.00  0.00    -0.240 OA
ATOM     15  O   UNL     1      43.420  81.444  38.318  0.00  0.00    -0.240 OA
ENDBRANCH   9  13
ENDBRANCH   1  11
BRANCH   1  16
ATOM     16  C   UNL     1      48.809  81.151  42.215  0.00  0.00    +0.021 A 
ATOM     17  C   UNL     1      50.181  81.321  42.037  0.00  0.00    +0.198 A 
ATOM     18  C   UNL     1      50.802  82.529  42.269  0.00  0.00    +0.118 A 
ATOM     19  C   UNL     1      50.054  83.614  42.692  0.00  0.00    +0.010 A 
ATOM     20  C   UNL     1      48.699  83.477  42.875  0.00  0.00    +0.000 A 
ATOM     21  C   UNL     1      47.996  84.587  43.290  0.00  0.00    -0.000 A 
ATOM     22  C   UNL     1      46.640  84.472  43.473  0.00  0.00    -0.000 A 
ATOM     23  C   UNL     1      46.032  83.243  43.232  0.00  0.00    -0.000 A 
ATOM     24  C   UNL     1      46.742  82.136  42.816  0.00  0.00    -0.000 A 
ATOM     25  C   UNL     1      48.100  82.245  42.632  0.00  0.00    -0.001 A 
ATOM     26  O   UNL     1      50.966  80.261  41.615  0.00  0.00    -0.287 OA
BRANCH  18  27
ATOM     27  C   UNL     1      52.235  82.718  42.078  0.00  0.00    +0.391 C 
ATOM     28  O   UNL     1      52.991  83.218  42.921  0.00  0.00    -0.240 OA
ATOM     29  O   UNL     1      52.781  82.304  40.864  0.00  0.00    -0.240 OA
ENDBRANCH  18  27
ENDBRANCH   1  16
TORSDOF 4
