REMARK  Name = Oxazepam
REMARK  1 active torsions:
REMARK  status: ('A' for Active; 'I' for Inactive)
REMARK    1  A    between atoms: C_4  and  C_7
REMARK                            x       y       z     vdW  Elec       q    Type
REMARK                         _______ _______ _______ _____ _____    ______ ____
ROOT
ATOM      1  C   UNL     1      45.979  79.815  40.492  0.00  0.00    +0.080 C 
ATOM      2  N   UNL     1      45.463  79.773  39.289  0.00  0.00    -0.233 NA
ATOM      3  C   UNL     1      45.715  80.650  38.129  0.00  0.00    +0.333 C 
ATOM      4  C   UNL     1      45.519  82.085  38.543  0.00  0.00    +0.300 C 
ATOM      5  O   UNL     1      44.640  82.767  37.970  0.00  0.00    -0.268 OA
ATOM      6  N   UNL     1      46.281  82.747  39.566  0.00  0.00    -0.175 NA
ATOM      7  C   UNL     1      47.146  82.096  40.523  0.00  0.00    +0.075 A 
ATOM      8  C   UNL     1      47.022  80.759  40.873  0.00  0.00    +0.034 A 
ATOM      9  C   UNL     1      47.953  80.201  41.720  0.00  0.00    +0.014 A 
ATOM     10  C   UNL     1      48.969  81.007  42.188  0.00  0.00    +0.058 A 
ATOM     11  C   UNL     1      49.093  82.354  41.840  0.00  0.00    +0.013 A 
ATOM     12  C   UNL     1      48.161  82.885  40.996  0.00  0.00    +0.018 A 
ATOM     13 CL   UNL     1      50.141  80.299  43.270  0.00  0.00    -0.082 Cl
ATOM     14  O   UNL     1      44.835  80.306  37.137  0.00  0.00    -0.186 OA
ENDROOT
BRANCH   1  18
ATOM     15  C   UNL     1      44.526  76.729  43.052  0.00  0.00    +0.000 A 
ATOM     16  C   UNL     1      45.641  77.442  43.431  0.00  0.00    +0.000 A 
ATOM     17  C   UNL     1      46.127  78.477  42.624  0.00  0.00    +0.001 A 
ATOM     18  C   UNL     1      45.546  78.829  41.449  0.00  0.00    +0.017 A 
ATOM     19  C   UNL     1      44.407  78.080  41.092  0.00  0.00    +0.001 A 
ATOM     20  C   UNL     1      43.919  77.062  41.878  0.00  0.00    +0.000 A 
ENDBRANCH   1  18
TORSDOF 1
