REMARK  Name = Oxcarbazepine
REMARK  0 active torsions:
REMARK  status: ('A' for Active; 'I' for Inactive)
REMARK                            x       y       z     vdW  Elec       q    Type
REMARK                         _______ _______ _______ _____ _____    ______ ____
ROOT
ATOM      1  C   UNL     1      46.911  80.020  42.814  0.00  0.00    +0.097 C 
ATOM      2  C   UNL     1      47.694  80.829  41.845  0.00  0.00    -0.000 A 
ATOM      3  C   UNL     1      48.944  81.183  42.373  0.00  0.00    -0.003 A 
ATOM      4  C   UNL     1      49.868  81.925  41.675  0.00  0.00    -0.000 A 
ATOM      5  C   UNL     1      49.555  82.338  40.403  0.00  0.00    +0.001 A 
ATOM      6  C   UNL     1      48.336  82.013  39.838  0.00  0.00    +0.015 A 
ATOM      7  C   UNL     1      47.446  81.277  40.566  0.00  0.00    +0.056 A 
ATOM      8  N   UNL     1      46.221  81.047  39.844  0.00  0.00    -0.220 N 
ATOM      9  C   UNL     1      45.472  79.825  39.851  0.00  0.00    +0.062 A 
ATOM     10  C   UNL     1      44.849  79.558  38.679  0.00  0.00    +0.015 A 
ATOM     11  C   UNL     1      44.057  78.420  38.522  0.00  0.00    +0.001 A 
ATOM     12  C   UNL     1      43.934  77.582  39.591  0.00  0.00    +0.000 A 
ATOM     13  C   UNL     1      44.570  77.834  40.813  0.00  0.00    +0.004 A 
ATOM     14  C   UNL     1      45.343  78.971  40.925  0.00  0.00    +0.049 A 
ATOM     15  C   UNL     1      45.956  79.079  42.236  0.00  0.00    +0.179 C 
ATOM     16  O   UNL     1      45.596  78.178  43.054  0.00  0.00    -0.291 OA
ATOM     17  C   UNL     1      45.694  82.110  39.101  0.00  0.00    +0.350 C 
ATOM     18  O   UNL     1      44.590  82.131  38.486  0.00  0.00    -0.248 OA
ATOM     19  N   UNL     1      46.413  83.359  38.972  0.00  0.00    -0.069 NA
ENDROOT
TORSDOF 0
