REMARK  Name = Oxilofrine
REMARK  3 active torsions:
REMARK  status: ('A' for Active; 'I' for Inactive)
REMARK    1  A    between atoms: C_2  and  C_3
REMARK    2  A    between atoms: C_2  and  N_12
REMARK    3  A    between atoms: C_3  and  C_4
REMARK                            x       y       z     vdW  Elec       q    Type
REMARK                         _______ _______ _______ _____ _____    ______ ____
ROOT
ATOM      1  C   UNL     1      44.940  80.543  39.499  0.00  0.00    +0.009 A 
ATOM      2  C   UNL     1      45.111  79.769  40.636  0.00  0.00    +0.001 A 
ATOM      3  C   UNL     1      44.493  78.535  40.760  0.00  0.00    +0.042 A 
ATOM      4  C   UNL     1      43.686  78.043  39.746  0.00  0.00    +0.196 A 
ATOM      5  C   UNL     1      43.532  78.829  38.628  0.00  0.00    +0.042 A 
ATOM      6  C   UNL     1      44.134  80.060  38.478  0.00  0.00    +0.001 A 
ATOM      7  O   UNL     1      43.061  76.802  39.865  0.00  0.00    -0.287 OA
ENDROOT
BRANCH   1   8
ATOM      8  C   UNL     1      45.601  81.859  39.370  0.00  0.00    +0.190 C 
ATOM      9  O   UNL     1      46.062  82.088  38.075  0.00  0.00    -0.217 OA
BRANCH   8  11
ATOM     10  C   UNL     1      47.376  83.338  40.154  0.00  0.00    +0.022 C 
ATOM     11  C   UNL     1      46.756  81.997  40.359  0.00  0.00    +0.107 C 
BRANCH  11  12
ATOM     12  N   UNL     1      47.672  80.960  40.076  0.00  0.00    -0.215 NA
ATOM     13  C   UNL     1      48.766  80.803  40.946  0.00  0.00    +0.108 C 
ENDBRANCH  11  12
ENDBRANCH   8  11
ENDBRANCH   1   8
TORSDOF 3
