REMARK  Name = Oxiracetam
REMARK  2 active torsions:
REMARK  status: ('A' for Active; 'I' for Inactive)
REMARK    1  A    between atoms: N_4  and  C_7
REMARK    2  A    between atoms: C_7  and  C_8
REMARK                            x       y       z     vdW  Elec       q    Type
REMARK                         _______ _______ _______ _____ _____    ______ ____
ROOT
ATOM      1  C   UNL     1      45.759  77.811  41.033  0.00  0.00    +0.120 C 
ATOM      2  C   UNL     1      44.444  78.230  40.362  0.00  0.00    +0.181 C 
ATOM      3  C   UNL     1      44.989  79.242  39.376  0.00  0.00    +0.127 C 
ATOM      4  N   UNL     1      45.767  80.072  40.274  0.00  0.00    -0.268 N 
ATOM      5  C   UNL     1      46.390  79.165  41.174  0.00  0.00    +0.229 C 
ATOM      6  O   UNL     1      47.320  79.474  41.954  0.00  0.00    -0.275 OA
ATOM      7  O   UNL     1      43.834  77.158  39.737  0.00  0.00    -0.221 OA
ENDROOT
BRANCH   4   8
ATOM      8  C   UNL     1      45.834  81.513  40.190  0.00  0.00    +0.183 C 
BRANCH   8   9
ATOM      9  C   UNL     1      45.960  81.975  38.805  0.00  0.00    +0.281 C 
ATOM     10  O   UNL     1      45.067  81.676  37.974  0.00  0.00    -0.270 OA
ATOM     11  N   UNL     1      47.079  82.751  38.410  0.00  0.00    -0.086 NA
ENDBRANCH   8   9
ENDBRANCH   4   8
TORSDOF 2
