REMARK  Name = Oxitropium_bromide
REMARK  6 active torsions:
REMARK  status: ('A' for Active; 'I' for Inactive)
REMARK    1  A    between atoms: C_2  and  N_3
REMARK    2  A    between atoms: C_6  and  O_12
REMARK    3  A    between atoms: O_12  and  C_13
REMARK    4  A    between atoms: C_13  and  C_15
REMARK    5  A    between atoms: C_15  and  C_16
REMARK    6  A    between atoms: C_15  and  C_18
REMARK                            x       y       z     vdW  Elec       q    Type
REMARK                         _______ _______ _______ _____ _____    ______ ____
ROOT
ATOM      1  N   UNL     1      44.227  76.435  41.710  0.00  0.00    +0.395 N 
ATOM      2  C   UNL     1      43.594  77.714  42.035  0.00  0.00    -0.020 C 
ATOM      3  C   UNL     1      44.582  78.838  41.945  0.00  0.00    +0.026 C 
ATOM      4  C   UNL     1      45.132  78.926  40.555  0.00  0.00    +0.165 C 
ATOM      5  C   UNL     1      45.462  77.599  39.940  0.00  0.00    +0.026 C 
ATOM      6  C   UNL     1      44.420  76.584  40.287  0.00  0.00    -0.020 C 
ATOM      7  C   UNL     1      43.116  77.107  39.735  0.00  0.00    +0.122 C 
ATOM      8  C   UNL     1      42.598  77.942  40.890  0.00  0.00    +0.122 C 
ATOM      9  O   UNL     1      41.926  76.851  40.375  0.00  0.00    -0.358 OA
ATOM     10  C   UNL     1      43.401  75.321  42.032  0.00  0.00    -0.095 C 
ENDROOT
BRANCH   1  12
ATOM     11  C   UNL     1      46.057  75.022  42.557  0.00  0.00    -0.024 C 
ATOM     12  C   UNL     1      45.442  76.373  42.460  0.00  0.00    -0.073 C 
ENDBRANCH   1  12
BRANCH   4  13
ATOM     13  O   UNL     1      46.190  79.854  40.443  0.00  0.00    -0.452 OA
BRANCH  13  14
ATOM     14  C   UNL     1      46.155  81.010  39.716  0.00  0.00    +0.323 C 
ATOM     15  O   UNL     1      45.090  81.270  39.092  0.00  0.00    -0.250 OA
BRANCH  14  16
ATOM     16  C   UNL     1      47.324  81.948  39.646  0.00  0.00    +0.154 C 
BRANCH  16  17
ATOM     17  C   UNL     1      47.696  82.460  40.986  0.00  0.00    -0.009 A 
ATOM     18  C   UNL     1      46.747  83.115  41.744  0.00  0.00    -0.004 A 
ATOM     19  C   UNL     1      46.998  83.626  42.999  0.00  0.00    -0.000 A 
ATOM     20  C   UNL     1      48.271  83.471  43.526  0.00  0.00    -0.000 A 
ATOM     21  C   UNL     1      49.251  82.818  42.793  0.00  0.00    -0.000 A 
ATOM     22  C   UNL     1      48.953  82.322  41.538  0.00  0.00    -0.004 A 
ENDBRANCH  16  17
BRANCH  16  23
ATOM     23  C   UNL     1      46.957  83.134  38.766  0.00  0.00    +0.198 C 
ATOM     24  O   UNL     1      46.646  82.638  37.491  0.00  0.00    -0.219 OA
ENDBRANCH  16  23
ENDBRANCH  14  16
ENDBRANCH  13  14
ENDBRANCH   4  13
TORSDOF 6
REMARK  Name = Oxitropium_bromide
REMARK  6 active torsions:
REMARK  status: ('A' for Active; 'I' for Inactive)
REMARK    1  A    between atoms: C_2  and  N_3
REMARK    2  A    between atoms: C_6  and  O_12
REMARK    3  A    between atoms: O_12  and  C_13
REMARK    4  A    between atoms: C_13  and  C_15
REMARK    5  A    between atoms: C_15  and  C_16
REMARK    6  A    between atoms: C_15  and  C_18
REMARK                            x       y       z     vdW  Elec       q    Type
REMARK                         _______ _______ _______ _____ _____    ______ ____
ROOT
ATOM      1 BR   UNL     1      45.709  79.281  41.121  0.00  0.00    +0.000 Br
ENDROOT
TORSDOF 0
