REMARK  Name = Oxprenolol
REMARK  9 active torsions:
REMARK  status: ('A' for Active; 'I' for Inactive)
REMARK    1  A    between atoms: C_2  and  N_4
REMARK    2  A    between atoms: N_4  and  C_5
REMARK    3  A    between atoms: C_5  and  C_6
REMARK    4  A    between atoms: C_6  and  C_7
REMARK    5  A    between atoms: C_7  and  O_8
REMARK    6  A    between atoms: O_8  and  C_9
REMARK    7  A    between atoms: C_14  and  O_15
REMARK    8  A    between atoms: O_15  and  C_16
REMARK    9  A    between atoms: C_16  and  C_17
REMARK                            x       y       z     vdW  Elec       q    Type
REMARK                         _______ _______ _______ _____ _____    ______ ____
ROOT
ATOM      1  C   UNL     1      43.487  79.111  39.215  0.00  0.00    +0.172 A 
ATOM      2  C   UNL     1      42.618  79.131  38.140  0.00  0.00    +0.040 A 
ATOM      3  C   UNL     1      41.706  78.110  37.962  0.00  0.00    +0.003 A 
ATOM      4  C   UNL     1      41.636  77.063  38.837  0.00  0.00    +0.003 A 
ATOM      5  C   UNL     1      42.505  77.038  39.919  0.00  0.00    +0.040 A 
ATOM      6  C   UNL     1      43.414  78.024  40.124  0.00  0.00    +0.173 A 
ENDROOT
BRANCH   1   7
ATOM      7  O   UNL     1      44.419  80.040  39.485  0.00  0.00    -0.470 OA
BRANCH   7   8
ATOM      8  C   UNL     1      45.755  80.121  39.301  0.00  0.00    +0.240 C 
BRANCH   8   9
ATOM      9  C   UNL     1      46.188  81.457  38.763  0.00  0.00    +0.213 C 
ATOM     10  O   UNL     1      45.170  82.181  38.253  0.00  0.00    -0.218 OA
BRANCH   9  11
ATOM     11  C   UNL     1      46.909  82.268  39.837  0.00  0.00    +0.125 C 
BRANCH  11  12
ATOM     12  N   UNL     1      47.949  81.434  40.380  0.00  0.00    -0.217 NA
BRANCH  12  14
ATOM     13  C   UNL     1      47.970  82.727  42.443  0.00  0.00    +0.019 C 
ATOM     14  C   UNL     1      48.780  82.199  41.298  0.00  0.00    +0.073 C 
ATOM     15  C   UNL     1      49.883  81.321  41.808  0.00  0.00    +0.019 C 
ENDBRANCH  12  14
ENDBRANCH  11  12
ENDBRANCH   9  11
ENDBRANCH   8   9
ENDBRANCH   7   8
ENDBRANCH   1   7
BRANCH   6  16
ATOM     16  O   UNL     1      44.276  78.023  41.177  0.00  0.00    -0.468 OA
BRANCH  16  17
ATOM     17  C   UNL     1      44.086  77.412  42.408  0.00  0.00    +0.232 C 
BRANCH  17  18
ATOM     18  C   UNL     1      44.540  76.000  42.323  0.00  0.00    +0.021 C 
ATOM     19  C   UNL     1      44.337  75.211  43.370  0.00  0.00    -0.001 C 
ENDBRANCH  17  18
ENDBRANCH  16  17
ENDBRANCH   6  16
TORSDOF 9
