REMARK  Name = Oxtriphylline
REMARK  2 active torsions:
REMARK  status: ('A' for Active; 'I' for Inactive)
REMARK    1  A    between atoms: N_15  and  C_18
REMARK    2  A    between atoms: C_18  and  C_19
REMARK                            x       y       z     vdW  Elec       q    Type
REMARK                         _______ _______ _______ _____ _____    ______ ____
ROOT
ATOM      1  C   UNL     1      45.907  78.032  42.262  0.00  0.00    +0.138 C 
ATOM      2  N   UNL     1      45.742  79.006  41.212  0.00  0.00    -0.245 N 
ATOM      3  C   UNL     1      46.485  80.137  41.293  0.00  0.00    +0.285 A 
ATOM      4  C   UNL     1      46.365  81.099  40.316  0.00  0.00    +0.173 A 
ATOM      5  C   UNL     1      45.431  80.847  39.225  0.00  0.00    +0.172 A 
ATOM      6  N   UNL     1      45.494  81.916  38.411  0.00  0.00    -0.205 NA
ATOM      7  C   UNL     1      46.387  82.783  38.925  0.00  0.00    +0.200 A 
ATOM      8  N   UNL     1      46.913  82.299  40.067  0.00  0.00    -0.216 NA
ATOM      9  N   UNL     1      44.736  79.697  39.226  0.00  0.00    -0.263 N 
ATOM     10  C   UNL     1      44.887  78.798  40.195  0.00  0.00    +0.335 A 
ATOM     11  O   UNL     1      44.194  77.733  40.127  0.00  0.00    -0.246 OA
ATOM     12  C   UNL     1      43.808  79.455  38.136  0.00  0.00    +0.137 C 
ATOM     13  O   UNL     1      47.373  80.377  42.330  0.00  0.00    -0.265 OA
ENDROOT
TORSDOF 0
REMARK  Name = Oxtriphylline
REMARK  2 active torsions:
REMARK  status: ('A' for Active; 'I' for Inactive)
REMARK    1  A    between atoms: N_15  and  C_18
REMARK    2  A    between atoms: C_18  and  C_19
REMARK                            x       y       z     vdW  Elec       q    Type
REMARK                         _______ _______ _______ _____ _____    ______ ____
ROOT
ATOM      1  C   UNL     1      44.951  80.145  38.168  0.00  0.00    -0.096 C 
ATOM      2  N   UNL     1      45.093  79.850  39.597  0.00  0.00    +0.387 N 
ATOM      3  C   UNL     1      43.838  80.205  40.220  0.00  0.00    -0.096 C 
ATOM      4  C   UNL     1      45.379  78.439  39.723  0.00  0.00    -0.096 C 
ENDROOT
BRANCH   2   5
ATOM      5  C   UNL     1      46.167  80.596  40.190  0.00  0.00    -0.037 C 
BRANCH   5   6
ATOM      6  C   UNL     1      47.252  80.803  39.175  0.00  0.00    +0.160 C 
ATOM      7  O   UNL     1      48.062  81.894  39.554  0.00  0.00    -0.223 OA
ENDBRANCH   5   6
ENDBRANCH   2   5
TORSDOF 2
