REMARK  Name = Oxybuprocaine
REMARK  11 active torsions:
REMARK  status: ('A' for Active; 'I' for Inactive)
REMARK    1  A    between atoms: C_2  and  C_3
REMARK    2  A    between atoms: C_3  and  C_4
REMARK    3  A    between atoms: C_4  and  O_5
REMARK    4  A    between atoms: O_5  and  C_6
REMARK    5  A    between atoms: C_10  and  C_12
REMARK    6  A    between atoms: C_12  and  O_14
REMARK    7  A    between atoms: O_14  and  C_15
REMARK    8  A    between atoms: C_15  and  C_16
REMARK    9  A    between atoms: C_16  and  N_17
REMARK   10  A    between atoms: N_17  and  C_18
REMARK   11  A    between atoms: N_17  and  C_20
REMARK                            x       y       z     vdW  Elec       q    Type
REMARK                         _______ _______ _______ _____ _____    ______ ____
ROOT
ATOM      1  C   UNL     1      46.714  81.379  40.339  0.00  0.00    +0.155 A 
ATOM      2  C   UNL     1      46.538  82.325  39.343  0.00  0.00    +0.123 A 
ATOM      3  C   UNL     1      45.516  82.214  38.457  0.00  0.00    +0.021 A 
ATOM      4  C   UNL     1      44.647  81.139  38.563  0.00  0.00    +0.008 A 
ATOM      5  C   UNL     1      44.782  80.177  39.534  0.00  0.00    +0.079 A 
ATOM      6  C   UNL     1      45.822  80.299  40.427  0.00  0.00    +0.045 A 
ATOM      7  N   UNL     1      47.471  83.409  39.288  0.00  0.00    -0.125 NA
ENDROOT
BRANCH   5   8
ATOM      8  C   UNL     1      43.869  79.038  39.664  0.00  0.00    +0.341 C 
ATOM      9  O   UNL     1      44.028  78.170  40.562  0.00  0.00    -0.245 OA
BRANCH   8  10
ATOM     10  O   UNL     1      42.806  78.890  38.796  0.00  0.00    -0.444 OA
BRANCH  10  11
ATOM     11  C   UNL     1      41.991  77.741  38.760  0.00  0.00    +0.226 C 
BRANCH  11  12
ATOM     12  C   UNL     1      40.911  77.794  37.707  0.00  0.00    +0.120 C 
BRANCH  12  13
ATOM     13  N   UNL     1      39.993  76.704  37.941  0.00  0.00    -0.270 NA
BRANCH  13  14
ATOM     14  C   UNL     1      39.181  76.834  39.103  0.00  0.00    +0.072 C 
ATOM     15  C   UNL     1      37.819  77.336  38.636  0.00  0.00    +0.019 C 
ENDBRANCH  13  14
BRANCH  13  16
ATOM     16  C   UNL     1      40.644  75.413  37.839  0.00  0.00    +0.072 C 
ATOM     17  C   UNL     1      39.844  74.540  36.898  0.00  0.00    +0.019 C 
ENDBRANCH  13  16
ENDBRANCH  12  13
ENDBRANCH  11  12
ENDBRANCH  10  11
ENDBRANCH   8  10
ENDBRANCH   5   8
BRANCH   1  18
ATOM     18  O   UNL     1      47.752  81.488  41.241  0.00  0.00    -0.474 OA
BRANCH  18  19
ATOM     19  C   UNL     1      47.599  81.596  42.642  0.00  0.00    +0.205 C 
BRANCH  19  20
ATOM     20  C   UNL     1      48.938  81.939  43.254  0.00  0.00    +0.047 C 
BRANCH  20  22
ATOM     21  C   UNL     1      48.030  84.233  43.726  0.00  0.00    +0.000 C 
ATOM     22  C   UNL     1      49.208  83.412  43.322  0.00  0.00    +0.004 C 
ENDBRANCH  20  22
ENDBRANCH  19  20
ENDBRANCH  18  19
ENDBRANCH   1  18
TORSDOF 11
