REMARK  Name = Oxybutynin_hydrochloride
REMARK  10 active torsions:
REMARK  status: ('A' for Active; 'I' for Inactive)
REMARK    1  A    between atoms: C_2  and  N_3
REMARK    2  A    between atoms: N_3  and  C_4
REMARK    3  A    between atoms: N_3  and  C_6
REMARK    4  A    between atoms: C_6  and  C_7
REMARK    5  A    between atoms: C_8  and  C_9
REMARK    6  A    between atoms: C_9  and  O_10
REMARK    7  A    between atoms: O_10  and  C_11
REMARK    8  A    between atoms: C_11  and  C_13
REMARK    9  A    between atoms: C_13  and  C_14
REMARK   10  A    between atoms: C_13  and  C_20
REMARK                            x       y       z     vdW  Elec       q    Type
REMARK                         _______ _______ _______ _____ _____    ______ ____
ROOT
ATOM      1  C   UNL     1      45.681  78.608  40.535  0.00  0.00    +0.233 C 
ATOM      2  O   UNL     1      46.821  78.038  39.934  0.00  0.00    -0.210 OA
ENDROOT
BRANCH   1   3
ATOM      3  C   UNL     1      45.115  77.470  41.374  0.00  0.00    +0.043 C 
ATOM      4  C   UNL     1      43.872  77.826  42.161  0.00  0.00    +0.003 C 
ATOM      5  C   UNL     1      43.599  76.654  43.116  0.00  0.00    +0.000 C 
ATOM      6  C   UNL     1      44.594  76.633  44.230  0.00  0.00    +0.000 C 
ATOM      7  C   UNL     1      45.803  77.431  43.773  0.00  0.00    +0.000 C 
ATOM      8  C   UNL     1      46.174  76.994  42.382  0.00  0.00    +0.003 C 
ENDBRANCH   1   3
BRANCH   1   9
ATOM      9  C   UNL     1      44.746  78.976  39.447  0.00  0.00    +0.015 A 
ATOM     10  C   UNL     1      45.034  78.555  38.122  0.00  0.00    -0.001 A 
ATOM     11  C   UNL     1      44.088  78.922  37.197  0.00  0.00    -0.000 A 
ATOM     12  C   UNL     1      42.954  79.629  37.462  0.00  0.00    -0.000 A 
ATOM     13  C   UNL     1      42.687  80.043  38.800  0.00  0.00    -0.000 A 
ATOM     14  C   UNL     1      43.632  79.671  39.696  0.00  0.00    -0.001 A 
ENDBRANCH   1   9
BRANCH   1  15
ATOM     15  C   UNL     1      46.110  79.755  41.324  0.00  0.00    +0.350 C 
ATOM     16  O   UNL     1      47.160  79.628  42.029  0.00  0.00    -0.247 OA
BRANCH  15  17
ATOM     17  O   UNL     1      45.491  81.009  41.388  0.00  0.00    -0.432 OA
BRANCH  17  18
ATOM     18  C   UNL     1      46.159  82.001  42.265  0.00  0.00    +0.284 C 
BRANCH  18  20
ATOM     19  C   UNL     1      48.815  81.943  41.780  0.00  0.00    -0.069 C 
ATOM     20  C   UNL     1      47.528  81.966  42.018  0.00  0.00    -0.042 C 
BRANCH  19  21
ATOM     21  C   UNL     1      50.273  81.919  41.498  0.00  0.00    +0.150 C 
BRANCH  21  22
ATOM     22  N   UNL     1      50.849  83.133  41.831  0.00  0.00    -0.262 NA
BRANCH  22  24
ATOM     23  C   UNL     1      50.826  82.549  44.243  0.00  0.00    +0.019 C 
ATOM     24  C   UNL     1      50.915  83.559  43.150  0.00  0.00    +0.073 C 
ENDBRANCH  22  24
BRANCH  22  25
ATOM     25  C   UNL     1      51.033  84.094  40.800  0.00  0.00    +0.073 C 
ATOM     26  C   UNL     1      52.478  84.586  40.835  0.00  0.00    +0.019 C 
ENDBRANCH  22  25
ENDBRANCH  21  22
ENDBRANCH  19  21
ENDBRANCH  18  20
ENDBRANCH  17  18
ENDBRANCH  15  17
ENDBRANCH   1  15
TORSDOF 10
REMARK  Name = Oxybutynin_hydrochloride
REMARK  10 active torsions:
REMARK  status: ('A' for Active; 'I' for Inactive)
REMARK    1  A    between atoms: C_2  and  N_3
REMARK    2  A    between atoms: N_3  and  C_4
REMARK    3  A    between atoms: N_3  and  C_6
REMARK    4  A    between atoms: C_6  and  C_7
REMARK    5  A    between atoms: C_8  and  C_9
REMARK    6  A    between atoms: C_9  and  O_10
REMARK    7  A    between atoms: O_10  and  C_11
REMARK    8  A    between atoms: C_11  and  C_13
REMARK    9  A    between atoms: C_13  and  C_14
REMARK   10  A    between atoms: C_13  and  C_20
REMARK                            x       y       z     vdW  Elec       q    Type
REMARK                         _______ _______ _______ _____ _____    ______ ____
ROOT
ATOM      1 CL   UNL     1      47.639  80.348  41.528  0.00  0.00    +0.000 Cl
ENDROOT
TORSDOF 0
