REMARK  Name = Oxycodone
REMARK  1 active torsions:
REMARK  status: ('A' for Active; 'I' for Inactive)
REMARK    1  A    between atoms: C_17  and  O_20
REMARK                            x       y       z     vdW  Elec       q    Type
REMARK                         _______ _______ _______ _____ _____    ______ ____
ROOT
ATOM      1  C   UNL     1      49.805  80.081  43.160  0.00  0.00    +0.090 C 
ATOM      2  N   UNL     1      49.135  80.549  41.966  0.00  0.00    -0.270 NA
ATOM      3  C   UNL     1      49.387  79.701  40.845  0.00  0.00    +0.073 C 
ATOM      4  C   UNL     1      48.363  79.641  39.801  0.00  0.00    +0.028 C 
ATOM      5  C   UNL     1      47.116  80.403  39.972  0.00  0.00    +0.094 C 
ATOM      6  C   UNL     1      46.540  80.888  38.692  0.00  0.00    +0.228 C 
ATOM      7  C   UNL     1      46.181  82.296  38.815  0.00  0.00    +0.191 C 
ATOM      8  O   UNL     1      45.130  82.726  38.364  0.00  0.00    -0.292 OA
ATOM      9  C   UNL     1      47.114  83.236  39.503  0.00  0.00    +0.071 C 
ATOM     10  C   UNL     1      47.871  82.588  40.646  0.00  0.00    +0.040 C 
ATOM     11  C   UNL     1      47.109  81.402  41.111  0.00  0.00    +0.148 C 
ATOM     12  C   UNL     1      47.730  80.690  42.281  0.00  0.00    +0.090 C 
ATOM     13  C   UNL     1      47.160  79.344  42.580  0.00  0.00    +0.045 C 
ATOM     14  C   UNL     1      46.044  78.962  41.695  0.00  0.00    -0.021 A 
ATOM     15  C   UNL     1      46.021  79.489  40.433  0.00  0.00    +0.017 A 
ATOM     16  C   UNL     1      45.084  79.278  39.480  0.00  0.00    +0.169 A 
ATOM     17  C   UNL     1      44.043  78.427  39.846  0.00  0.00    +0.172 A 
ATOM     18  C   UNL     1      44.002  77.849  41.124  0.00  0.00    +0.040 A 
ATOM     19  C   UNL     1      45.016  78.128  42.042  0.00  0.00    -0.001 A 
ATOM     20  O   UNL     1      45.463  80.012  38.367  0.00  0.00    -0.469 OA
ATOM     21  O   UNL     1      45.797  81.702  41.477  0.00  0.00    -0.224 OA
ENDROOT
BRANCH  17  22
ATOM     22  O   UNL     1      43.060  78.181  38.898  0.00  0.00    -0.468 OA
ATOM     23  C   UNL     1      42.165  77.106  39.114  0.00  0.00    +0.253 C 
ENDBRANCH  17  22
TORSDOF 1
