REMARK  Name = Oxymetholone
REMARK  0 active torsions:
REMARK  status: ('A' for Active; 'I' for Inactive)
REMARK                            x       y       z     vdW  Elec       q    Type
REMARK                         _______ _______ _______ _____ _____    ______ ____
ROOT
ATOM      1  C   UNL     1      49.682  81.781  44.272  0.00  0.00    +0.002 C 
ATOM      2  C   UNL     1      49.564  82.994  43.442  0.00  0.00    +0.026 C 
ATOM      3  C   UNL     1      48.174  83.473  43.206  0.00  0.00    +0.002 C 
ATOM      4  C   UNL     1      47.396  82.459  42.454  0.00  0.00    +0.000 C 
ATOM      5  C   UNL     1      48.144  81.520  41.599  0.00  0.00    +0.000 C 
ATOM      6  C   UNL     1      49.505  81.945  41.158  0.00  0.00    +0.000 C 
ATOM      7  C   UNL     1      50.189  82.888  42.065  0.00  0.00    +0.002 C 
ATOM      8  C   UNL     1      51.608  82.638  42.367  0.00  0.00    +0.003 C 
ATOM      9  C   UNL     1      51.846  83.441  43.641  0.00  0.00    +0.030 C 
ATOM     10  C   UNL     1      50.491  84.057  44.000  0.00  0.00    +0.127 C 
ATOM     11  C   UNL     1      50.328  84.261  45.468  0.00  0.00    +0.033 C 
ATOM     12  O   UNL     1      50.328  85.259  43.274  0.00  0.00    -0.226 OA
ATOM     13  C   UNL     1      49.514  82.560  39.757  0.00  0.00    +0.000 C 
ATOM     14  C   UNL     1      48.176  83.159  39.412  0.00  0.00    +0.000 C 
ATOM     15  C   UNL     1      47.187  82.022  39.315  0.00  0.00    +0.008 C 
ATOM     16  C   UNL     1      47.282  81.035  40.422  0.00  0.00    +0.005 C 
ATOM     17  C   UNL     1      45.932  80.616  40.982  0.00  0.00    +0.033 C 
ATOM     18  C   UNL     1      45.082  80.261  39.809  0.00  0.00    +0.055 C 
ATOM     19  C   UNL     1      44.521  79.100  39.645  0.00  0.00    +0.233 C 
ATOM     20  O   UNL     1      43.401  78.754  40.346  0.00  0.00    -0.283 OA
ATOM     21  C   UNL     1      44.912  81.342  38.819  0.00  0.00    +0.172 C 
ATOM     22  O   UNL     1      44.110  81.247  37.879  0.00  0.00    -0.292 OA
ATOM     23  C   UNL     1      45.787  82.535  39.057  0.00  0.00    +0.069 C 
ATOM     24  C   UNL     1      47.927  79.717  39.961  0.00  0.00    +0.000 C 
ENDROOT
TORSDOF 0
