REMARK  Name = Oxymorphone
REMARK  0 active torsions:
REMARK  status: ('A' for Active; 'I' for Inactive)
REMARK                            x       y       z     vdW  Elec       q    Type
REMARK                         _______ _______ _______ _____ _____    ______ ____
ROOT
ATOM      1  C   UNL     1      50.400  81.304  42.866  0.00  0.00    +0.090 C 
ATOM      2  N   UNL     1      49.372  80.475  42.263  0.00  0.00    -0.270 NA
ATOM      3  C   UNL     1      49.788  80.147  40.944  0.00  0.00    +0.073 C 
ATOM      4  C   UNL     1      48.708  79.751  40.002  0.00  0.00    +0.028 C 
ATOM      5  C   UNL     1      47.469  80.557  40.066  0.00  0.00    +0.094 C 
ATOM      6  C   UNL     1      46.889  80.933  38.743  0.00  0.00    +0.228 C 
ATOM      7  C   UNL     1      45.876  82.012  38.858  0.00  0.00    +0.191 C 
ATOM      8  O   UNL     1      44.855  82.040  38.190  0.00  0.00    -0.292 OA
ATOM      9  C   UNL     1      46.094  83.119  39.827  0.00  0.00    +0.071 C 
ATOM     10  C   UNL     1      46.393  82.487  41.180  0.00  0.00    +0.040 C 
ATOM     11  C   UNL     1      47.649  81.693  41.038  0.00  0.00    +0.148 C 
ATOM     12  C   UNL     1      48.064  81.075  42.351  0.00  0.00    +0.090 C 
ATOM     13  C   UNL     1      47.104  80.095  42.923  0.00  0.00    +0.045 C 
ATOM     14  C   UNL     1      46.188  79.490  41.945  0.00  0.00    -0.021 A 
ATOM     15  C   UNL     1      46.375  79.722  40.624  0.00  0.00    +0.017 A 
ATOM     16  C   UNL     1      45.609  79.236  39.615  0.00  0.00    +0.173 A 
ATOM     17  C   UNL     1      44.544  78.432  39.974  0.00  0.00    +0.229 A 
ATOM     18  C   UNL     1      44.294  78.153  41.323  0.00  0.00    +0.045 A 
ATOM     19  C   UNL     1      45.128  78.690  42.307  0.00  0.00    -0.001 A 
ATOM     20  O   UNL     1      43.741  77.920  38.962  0.00  0.00    -0.283 OA
ATOM     21  O   UNL     1      46.162  79.727  38.430  0.00  0.00    -0.468 OA
ATOM     22  O   UNL     1      48.659  82.528  40.610  0.00  0.00    -0.224 OA
ENDROOT
TORSDOF 0
