REMARK  Name = Oxymetazoline
REMARK  3 active torsions:
REMARK  status: ('A' for Active; 'I' for Inactive)
REMARK    1  A    between atoms: C_4  and  C_16
REMARK    2  A    between atoms: C_7  and  C_8
REMARK    3  A    between atoms: C_8  and  C_9
REMARK                            x       y       z     vdW  Elec       q    Type
REMARK                         _______ _______ _______ _____ _____    ______ ____
ROOT
ATOM      1  C   UNL     1      46.090  82.758  38.551  0.00  0.00    +0.031 C 
ATOM      2  C   UNL     1      46.577  82.073  39.769  0.00  0.00    -0.026 A 
ATOM      3  C   UNL     1      47.849  82.340  40.232  0.00  0.00    -0.006 A 
ATOM      4  C   UNL     1      48.345  81.728  41.360  0.00  0.00    +0.015 A 
ATOM      5  C   UNL     1      47.542  80.831  42.033  0.00  0.00    +0.187 A 
ATOM      6  C   UNL     1      46.257  80.570  41.553  0.00  0.00    +0.013 A 
ATOM      7  C   UNL     1      45.756  81.181  40.423  0.00  0.00    -0.020 A 
ATOM      8  C   UNL     1      45.393  79.607  42.268  0.00  0.00    +0.034 C 
ATOM      9  O   UNL     1      47.954  80.163  43.182  0.00  0.00    -0.287 OA
ENDROOT
BRANCH   4  10
ATOM     10  C   UNL     1      49.693  81.977  41.896  0.00  0.00    +0.022 C 
ATOM     11  C   UNL     1      49.684  82.883  43.103  0.00  0.00    +0.004 C 
ATOM     12  C   UNL     1      50.379  80.677  42.320  0.00  0.00    +0.004 C 
ATOM     13  C   UNL     1      50.602  82.616  40.867  0.00  0.00    +0.004 C 
ENDBRANCH   4  10
BRANCH   7  14
ATOM     14  C   UNL     1      44.388  80.884  39.929  0.00  0.00    +0.088 C 
BRANCH  14  15
ATOM     15  C   UNL     1      44.238  79.494  39.450  0.00  0.00    +0.124 C 
ATOM     16  N   UNL     1      43.131  79.033  38.956  0.00  0.00    -0.257 NA
ATOM     17  C   UNL     1      43.275  77.651  38.572  0.00  0.00    +0.150 C 
ATOM     18  C   UNL     1      44.574  77.187  39.194  0.00  0.00    +0.140 C 
ATOM     19  N   UNL     1      45.227  78.472  39.448  0.00  0.00    -0.222 NA
ENDBRANCH  14  15
ENDBRANCH   7  14
TORSDOF 3
