REMARK  Name = Oxyphencyclimine
REMARK  6 active torsions:
REMARK  status: ('A' for Active; 'I' for Inactive)
REMARK    1  A    between atoms: C_7  and  C_8
REMARK    2  A    between atoms: C_8  and  O_9
REMARK    3  A    between atoms: O_9  and  C_10
REMARK    4  A    between atoms: C_10  and  C_12
REMARK    5  A    between atoms: C_12  and  C_13
REMARK    6  A    between atoms: C_12  and  C_19
REMARK                            x       y       z     vdW  Elec       q    Type
REMARK                         _______ _______ _______ _____ _____    ______ ____
ROOT
ATOM      1  C   UNL     1      48.278  81.816  40.580  0.00  0.00    +0.233 C 
ATOM      2  O   UNL     1      49.224  82.358  39.683  0.00  0.00    -0.210 OA
ENDROOT
BRANCH   1   3
ATOM      3  C   UNL     1      48.859  80.481  40.997  0.00  0.00    +0.043 C 
ATOM      4  C   UNL     1      50.016  80.615  41.926  0.00  0.00    +0.003 C 
ATOM      5  C   UNL     1      50.354  79.215  42.438  0.00  0.00    +0.000 C 
ATOM      6  C   UNL     1      50.716  78.344  41.258  0.00  0.00    +0.000 C 
ATOM      7  C   UNL     1      49.552  78.247  40.294  0.00  0.00    +0.000 C 
ATOM      8  C   UNL     1      49.264  79.663  39.809  0.00  0.00    +0.003 C 
ENDBRANCH   1   3
BRANCH   1   9
ATOM      9  C   UNL     1      48.166  82.750  41.716  0.00  0.00    +0.015 A 
ATOM     10  C   UNL     1      46.989  82.812  42.425  0.00  0.00    -0.001 A 
ATOM     11  C   UNL     1      46.911  83.695  43.480  0.00  0.00    -0.000 A 
ATOM     12  C   UNL     1      47.978  84.512  43.841  0.00  0.00    -0.000 A 
ATOM     13  C   UNL     1      49.162  84.457  43.137  0.00  0.00    -0.000 A 
ATOM     14  C   UNL     1      49.222  83.561  42.076  0.00  0.00    -0.001 A 
ENDBRANCH   1   9
BRANCH   1  15
ATOM     15  C   UNL     1      47.013  81.643  39.822  0.00  0.00    +0.349 C 
ATOM     16  O   UNL     1      46.714  82.417  38.876  0.00  0.00    -0.247 OA
BRANCH  15  17
ATOM     17  O   UNL     1      46.082  80.646  40.083  0.00  0.00    -0.439 OA
BRANCH  17  18
ATOM     18  C   UNL     1      44.951  80.432  39.248  0.00  0.00    +0.268 C 
BRANCH  18  25
ATOM     19  C   UNL     1      42.403  79.676  37.948  0.00  0.00    +0.113 C 
ATOM     20  N   UNL     1      43.035  78.813  38.923  0.00  0.00    -0.292 N 
ATOM     21  C   UNL     1      42.477  77.497  39.151  0.00  0.00    +0.094 C 
ATOM     22  C   UNL     1      42.453  77.300  40.657  0.00  0.00    +0.048 C 
ATOM     23  C   UNL     1      43.862  77.345  41.151  0.00  0.00    +0.128 C 
ATOM     24  N   UNL     1      44.522  78.517  40.672  0.00  0.00    -0.257 NA
ATOM     25  C   UNL     1      44.182  79.222  39.658  0.00  0.00    +0.148 C 
ENDBRANCH  18  25
ENDBRANCH  17  18
ENDBRANCH  15  17
ENDBRANCH   1  15
TORSDOF 6
