REMARK  Name = Oxyphenonium
REMARK  9 active torsions:
REMARK  status: ('A' for Active; 'I' for Inactive)
REMARK    1  A    between atoms: C_2  and  N_3
REMARK    2  A    between atoms: N_3  and  C_5
REMARK    3  A    between atoms: N_3  and  C_7
REMARK    4  A    between atoms: C_7  and  C_8
REMARK    5  A    between atoms: C_8  and  O_9
REMARK    6  A    between atoms: O_9  and  C_10
REMARK    7  A    between atoms: C_10  and  C_12
REMARK    8  A    between atoms: C_12  and  C_13
REMARK    9  A    between atoms: C_12  and  C_19
REMARK                            x       y       z     vdW  Elec       q    Type
REMARK                         _______ _______ _______ _____ _____    ______ ____
ROOT
ATOM      1  C   UNL     1      44.581  79.861  40.273  0.00  0.00    +0.233 C 
ATOM      2  O   UNL     1      43.541  80.417  41.059  0.00  0.00    -0.210 OA
ENDROOT
BRANCH   1   3
ATOM      3  C   UNL     1      45.781  80.816  40.318  0.00  0.00    +0.043 C 
ATOM      4  C   UNL     1      45.631  81.752  39.161  0.00  0.00    +0.003 C 
ATOM      5  C   UNL     1      46.724  82.764  39.045  0.00  0.00    +0.000 C 
ATOM      6  C   UNL     1      48.014  82.319  39.690  0.00  0.00    +0.000 C 
ATOM      7  C   UNL     1      48.194  80.818  39.652  0.00  0.00    +0.000 C 
ATOM      8  C   UNL     1      47.077  80.090  40.369  0.00  0.00    +0.003 C 
ENDBRANCH   1   3
BRANCH   1   9
ATOM      9  C   UNL     1      44.930  78.567  40.917  0.00  0.00    +0.015 A 
ATOM     10  C   UNL     1      44.640  78.295  42.236  0.00  0.00    -0.001 A 
ATOM     11  C   UNL     1      44.977  77.069  42.825  0.00  0.00    -0.000 A 
ATOM     12  C   UNL     1      45.614  76.125  42.048  0.00  0.00    -0.000 A 
ATOM     13  C   UNL     1      45.922  76.349  40.736  0.00  0.00    -0.000 A 
ATOM     14  C   UNL     1      45.578  77.564  40.183  0.00  0.00    -0.001 A 
ENDBRANCH   1   9
BRANCH   1  15
ATOM     15  C   UNL     1      44.047  79.725  38.909  0.00  0.00    +0.349 C 
ATOM     16  O   UNL     1      44.828  79.610  37.933  0.00  0.00    -0.247 OA
BRANCH  15  17
ATOM     17  O   UNL     1      42.690  79.717  38.633  0.00  0.00    -0.449 OA
BRANCH  17  18
ATOM     18  C   UNL     1      42.171  78.627  37.904  0.00  0.00    +0.187 C 
BRANCH  18  19
ATOM     19  C   UNL     1      40.757  78.327  38.251  0.00  0.00    -0.025 C 
BRANCH  19  20
ATOM     20  N   UNL     1      40.315  77.120  37.585  0.00  0.00    +0.391 N 
ATOM     21  C   UNL     1      40.514  77.260  36.183  0.00  0.00    -0.096 C 
BRANCH  20  23
ATOM     22  C   UNL     1      40.486  74.727  38.192  0.00  0.00    -0.024 C 
ATOM     23  C   UNL     1      41.164  76.047  38.077  0.00  0.00    -0.073 C 
ENDBRANCH  20  23
BRANCH  20  24
ATOM     24  C   UNL     1      38.948  76.875  37.971  0.00  0.00    -0.073 C 
ATOM     25  C   UNL     1      38.653  77.120  39.416  0.00  0.00    -0.024 C 
ENDBRANCH  20  24
ENDBRANCH  19  20
ENDBRANCH  18  19
ENDBRANCH  17  18
ENDBRANCH  15  17
ENDBRANCH   1  15
TORSDOF 9
