REMARK  Name = Oxytocin
REMARK  17 active torsions:
REMARK  status: ('A' for Active; 'I' for Inactive)
REMARK    1  A    between atoms: C_2  and  C_3
REMARK    2  A    between atoms: C_3  and  C_5
REMARK    3  A    between atoms: C_9  and  C_65
REMARK    4  A    between atoms: C_13  and  C_61
REMARK    5  A    between atoms: C_17  and  C_39
REMARK    6  A    between atoms: C_26  and  C_30
REMARK    7  A    between atoms: C_30  and  C_31
REMARK    8  A    between atoms: C_45  and  C_46
REMARK    9  A    between atoms: N_48  and  C_49
REMARK   10  A    between atoms: C_49  and  C_50
REMARK   11  A    between atoms: C_49  and  C_54
REMARK   12  A    between atoms: C_50  and  C_51
REMARK   13  A    between atoms: N_56  and  C_57
REMARK   14  A    between atoms: C_57  and  C_58
REMARK   15  A    between atoms: C_61  and  C_62
REMARK   16  A    between atoms: C_65  and  C_66
REMARK   17  A    between atoms: C_66  and  C_67
REMARK                            x       y       z     vdW  Elec       q    Type
REMARK                         _______ _______ _______ _____ _____    ______ ____
ROOT
ATOM      1  C   UNL     1      49.500  78.195  42.316  0.00  0.00    +0.173 C 
ATOM      2  C   UNL     1      48.470  77.673  41.406  0.00  0.00    +0.262 C 
ATOM      3  O   UNL     1      48.700  77.872  40.161  0.00  0.00    -0.271 OA
ATOM      4  N   UNL     1      47.296  76.999  41.764  0.00  0.00    -0.196 NA
ATOM      5  C   UNL     1      46.889  76.556  43.064  0.00  0.00    +0.173 C 
ATOM      6  C   UNL     1      45.488  76.948  43.304  0.00  0.00    +0.262 C 
ATOM      7  O   UNL     1      45.371  77.986  44.084  0.00  0.00    -0.271 OA
ATOM      8  N   UNL     1      44.315  76.366  42.820  0.00  0.00    -0.196 NA
ATOM      9  C   UNL     1      43.825  76.198  41.477  0.00  0.00    +0.182 C 
ATOM     10  C   UNL     1      42.337  76.203  41.440  0.00  0.00    +0.262 C 
ATOM     11  O   UNL     1      41.781  76.153  42.597  0.00  0.00    -0.271 OA
ATOM     12  N   UNL     1      41.498  76.251  40.318  0.00  0.00    -0.195 NA
ATOM     13  C   UNL     1      41.501  77.159  39.206  0.00  0.00    +0.183 C 
ATOM     14  C   UNL     1      42.330  76.696  38.024  0.00  0.00    +0.100 C 
ATOM     15  S   UNL     1      43.853  77.664  37.978  0.00  0.00    -0.080 S 
ATOM     16  S   UNL     1      43.555  79.719  38.340  0.00  0.00    -0.080 S 
ATOM     17  C   UNL     1      43.901  80.139  40.059  0.00  0.00    +0.097 C 
ATOM     18  C   UNL     1      45.370  80.542  40.185  0.00  0.00    +0.181 C 
ATOM     19  C   UNL     1      45.729  80.709  41.602  0.00  0.00    +0.260 C 
ATOM     20  O   UNL     1      44.781  80.676  42.467  0.00  0.00    -0.272 OA
ATOM     21  N   UNL     1      47.041  80.906  42.108  0.00  0.00    -0.196 NA
ATOM     22  C   UNL     1      48.211  81.157  41.282  0.00  0.00    +0.177 C 
ATOM     23  C   UNL     1      49.458  80.733  41.946  0.00  0.00    +0.262 C 
ATOM     24  O   UNL     1      50.067  81.652  42.606  0.00  0.00    -0.271 OA
ATOM     25  N   UNL     1      50.060  79.471  41.950  0.00  0.00    -0.196 NA
ATOM     26  N   UNL     1      46.121  79.526  39.496  0.00  0.00    -0.122 NA
ENDROOT
BRANCH  13  27
ATOM     27  C   UNL     1      40.118  77.417  38.719  0.00  0.00    +0.247 C 
ATOM     28  O   UNL     1      39.386  78.138  39.509  0.00  0.00    -0.273 OA
ATOM     29  N   UNL     1      39.618  76.941  37.522  0.00  0.00    -0.272 N 
ATOM     30  C   UNL     1      39.672  77.454  36.200  0.00  0.00    +0.094 C 
ATOM     31  C   UNL     1      39.871  76.152  35.378  0.00  0.00    +0.024 C 
ATOM     32  C   UNL     1      39.513  75.024  36.284  0.00  0.00    +0.031 C 
ATOM     33  C   UNL     1      38.827  75.695  37.429  0.00  0.00    +0.154 C 
BRANCH  33  34
ATOM     34  C   UNL     1      37.429  76.036  37.150  0.00  0.00    +0.260 C 
ATOM     35  O   UNL     1      37.046  77.197  36.886  0.00  0.00    -0.272 OA
ATOM     36  N   UNL     1      36.403  75.035  37.163  0.00  0.00    -0.196 NA
BRANCH  36  37
ATOM     37  C   UNL     1      35.027  75.358  36.966  0.00  0.00    +0.173 C 
BRANCH  37  38
ATOM     38  C   UNL     1      34.665  75.103  35.548  0.00  0.00    +0.262 C 
ATOM     39  O   UNL     1      33.720  74.343  35.193  0.00  0.00    -0.271 OA
ATOM     40  N   UNL     1      35.391  75.731  34.482  0.00  0.00    -0.194 NA
BRANCH  40  41
ATOM     41  C   UNL     1      35.114  75.607  33.096  0.00  0.00    +0.203 C 
BRANCH  41  42
ATOM     42  C   UNL     1      36.144  76.287  32.292  0.00  0.00    +0.283 C 
ATOM     43  O   UNL     1      37.026  76.988  32.838  0.00  0.00    -0.270 OA
ATOM     44  N   UNL     1      36.141  76.150  30.887  0.00  0.00    -0.086 NA
ENDBRANCH  41  42
ENDBRANCH  40  41
ENDBRANCH  37  38
BRANCH  37  45
ATOM     45  C   UNL     1      34.029  74.744  37.863  0.00  0.00    +0.031 C 
BRANCH  45  46
ATOM     46  C   UNL     1      34.210  74.930  39.339  0.00  0.00    +0.002 C 
ATOM     47  C   UNL     1      34.292  76.339  39.808  0.00  0.00    +0.000 C 
ATOM     48  C   UNL     1      32.957  74.297  39.986  0.00  0.00    +0.000 C 
ENDBRANCH  45  46
ENDBRANCH  37  45
ENDBRANCH  36  37
ENDBRANCH  33  34
ENDBRANCH  13  27
BRANCH   1  49
ATOM     49  C   UNL     1      50.601  77.129  42.358  0.00  0.00    +0.029 C 
ATOM     50  C   UNL     1      51.236  77.087  43.740  0.00  0.00    +0.002 C 
BRANCH  49  52
ATOM     51  C   UNL     1      51.542  78.850  40.951  0.00  0.00    +0.000 C 
ATOM     52  C   UNL     1      51.710  77.386  41.385  0.00  0.00    +0.002 C 
ENDBRANCH  49  52
ENDBRANCH   1  49
BRANCH   9  53
ATOM     53  C   UNL     1      44.253  74.891  40.839  0.00  0.00    +0.120 C 
BRANCH  53  54
ATOM     54  C   UNL     1      44.880  74.046  41.883  0.00  0.00    +0.263 C 
ATOM     55  O   UNL     1      45.533  74.479  42.863  0.00  0.00    -0.272 OA
ATOM     56  N   UNL     1      44.757  72.623  41.812  0.00  0.00    -0.088 NA
ENDBRANCH  53  54
ENDBRANCH   9  53
BRANCH  22  57
ATOM     57  C   UNL     1      48.245  82.581  40.794  0.00  0.00    +0.057 C 
BRANCH  57  58
ATOM     58  C   UNL     1      48.371  83.609  41.829  0.00  0.00    -0.020 A 
ATOM     59  C   UNL     1      49.622  84.091  42.148  0.00  0.00    -0.001 A 
ATOM     60  C   UNL     1      49.836  85.039  43.125  0.00  0.00    +0.042 A 
ATOM     61  C   UNL     1      48.775  85.555  43.840  0.00  0.00    +0.196 A 
ATOM     62  C   UNL     1      47.517  85.087  43.540  0.00  0.00    +0.042 A 
ATOM     63  C   UNL     1      47.322  84.133  42.554  0.00  0.00    -0.001 A 
ATOM     64  O   UNL     1      48.975  86.524  44.839  0.00  0.00    -0.287 OA
ENDBRANCH  57  58
ENDBRANCH  22  57
BRANCH   5  65
ATOM     65  C   UNL     1      47.161  75.086  43.328  0.00  0.00    +0.041 C 
BRANCH  65  66
ATOM     66  C   UNL     1      47.845  74.375  42.213  0.00  0.00    +0.091 C 
BRANCH  66  67
ATOM     67  C   UNL     1      48.152  75.150  41.021  0.00  0.00    +0.261 C 
ATOM     68  O   UNL     1      47.395  76.026  40.517  0.00  0.00    -0.272 OA
ATOM     69  N   UNL     1      49.396  74.935  40.337  0.00  0.00    -0.088 NA
ENDBRANCH  66  67
ENDBRANCH  65  66
ENDBRANCH   5  65
TORSDOF 17
