REMARK  Name = Oxytetracycline
REMARK  2 active torsions:
REMARK  status: ('A' for Active; 'I' for Inactive)
REMARK    1  A    between atoms: C_6  and  N_29
REMARK    2  A    between atoms: C_9  and  C_26
REMARK                            x       y       z     vdW  Elec       q    Type
REMARK                         _______ _______ _______ _____ _____    ______ ____
ROOT
ATOM      1  C   UNL     1      46.117  77.504  40.567  0.00  0.00    +0.038 C 
ATOM      2  C   UNL     1      45.127  78.563  41.131  0.00  0.00    +0.152 C 
ATOM      3  C   UNL     1      45.678  79.917  41.047  0.00  0.00    +0.091 C 
ATOM      4  C   UNL     1      47.118  80.029  41.495  0.00  0.00    +0.164 C 
ATOM      5  C   UNL     1      48.064  80.581  40.491  0.00  0.00    +0.095 C 
ATOM      6  C   UNL     1      49.427  80.697  41.118  0.00  0.00    +0.126 C 
ATOM      7  C   UNL     1      49.281  81.602  42.286  0.00  0.00    +0.195 C 
ATOM      8  O   UNL     1      49.718  81.374  43.428  0.00  0.00    -0.290 OA
ATOM      9  C   UNL     1      48.568  82.858  42.080  0.00  0.00    +0.130 C 
ATOM     10  C   UNL     1      47.781  83.002  40.998  0.00  0.00    +0.215 C 
ATOM     11  C   UNL     1      47.609  81.942  40.009  0.00  0.00    +0.239 C 
ATOM     12  C   UNL     1      46.175  81.889  39.599  0.00  0.00    +0.207 C 
ATOM     13  O   UNL     1      45.639  82.851  39.029  0.00  0.00    -0.289 OA
ATOM     14  C   UNL     1      45.362  80.685  39.865  0.00  0.00    +0.059 C 
ATOM     15  C   UNL     1      44.400  80.345  39.032  0.00  0.00    +0.197 C 
ATOM     16  C   UNL     1      43.620  79.139  39.285  0.00  0.00    +0.076 A 
ATOM     17  C   UNL     1      43.901  78.359  40.370  0.00  0.00    +0.012 A 
ATOM     18  C   UNL     1      43.075  77.284  40.681  0.00  0.00    -0.002 A 
ATOM     19  C   UNL     1      41.964  76.996  39.887  0.00  0.00    +0.003 A 
ATOM     20  C   UNL     1      41.695  77.795  38.787  0.00  0.00    +0.042 A 
ATOM     21  C   UNL     1      42.524  78.856  38.498  0.00  0.00    +0.198 A 
ATOM     22  O   UNL     1      42.248  79.649  37.397  0.00  0.00    -0.286 OA
ATOM     23  O   UNL     1      44.153  81.151  37.925  0.00  0.00    -0.287 OA
ATOM     24  O   UNL     1      48.337  82.289  38.870  0.00  0.00    -0.210 OA
ATOM     25  O   UNL     1      47.112  84.198  40.818  0.00  0.00    -0.288 OA
ATOM     26  O   UNL     1      47.540  78.827  42.014  0.00  0.00    -0.223 OA
ATOM     27  O   UNL     1      44.831  78.189  42.469  0.00  0.00    -0.221 OA
ENDROOT
BRANCH   9  28
ATOM     28  C   UNL     1      48.724  83.925  43.050  0.00  0.00    +0.290 C 
ATOM     29  O   UNL     1      49.554  83.804  43.984  0.00  0.00    -0.266 OA
ATOM     30  N   UNL     1      47.973  85.116  42.991  0.00  0.00    -0.084 NA
ENDBRANCH   9  28
BRANCH   6  31
ATOM     31  N   UNL     1      49.994  79.475  41.537  0.00  0.00    -0.265 NA
ATOM     32  C   UNL     1      50.953  78.895  40.636  0.00  0.00    +0.090 C 
ATOM     33  C   UNL     1      50.682  79.673  42.798  0.00  0.00    +0.090 C 
ENDBRANCH   6  31
TORSDOF 2
