REMARK  Name = OZ277
REMARK  4 active torsions:
REMARK  status: ('A' for Active; 'I' for Inactive)
REMARK    1  A    between atoms: C_2  and  C_4
REMARK    2  A    between atoms: C_4  and  N_5
REMARK    3  A    between atoms: C_6  and  C_8
REMARK    4  A    between atoms: C_8  and  C_9
REMARK                            x       y       z     vdW  Elec       q    Type
REMARK                         _______ _______ _______ _____ _____    ______ ____
ROOT
ATOM      1  C   UNL     1      44.396  79.441  40.256  0.00  0.00    +0.009 C 
ATOM      2  C   UNL     1      45.729  78.796  40.460  0.00  0.00    +0.006 C 
ATOM      3  C   UNL     1      46.692  79.740  41.168  0.00  0.00    +0.059 C 
ATOM      4  C   UNL     1      46.921  80.959  40.340  0.00  0.00    +0.221 C 
ATOM      5  C   UNL     1      45.827  81.189  39.322  0.00  0.00    +0.059 C 
ATOM      6  C   UNL     1      44.511  80.934  40.022  0.00  0.00    +0.006 C 
ATOM      7  O   UNL     1      47.058  82.069  41.147  0.00  0.00    -0.309 OA
ATOM      8  C   UNL     1      48.424  82.079  41.421  0.00  0.00    +0.221 C 
ATOM      9  C   UNL     1      49.047  83.325  40.879  0.00  0.00    +0.054 C 
ATOM     10  C   UNL     1      50.514  83.347  41.163  0.00  0.00    +0.005 C 
ATOM     11  C   UNL     1      50.726  83.288  42.654  0.00  0.00    +0.000 C 
ATOM     12  C   UNL     1      50.086  84.458  43.326  0.00  0.00    +0.000 C 
ATOM     13  C   UNL     1      48.606  84.451  43.018  0.00  0.00    +0.000 C 
ATOM     14  C   UNL     1      48.383  84.514  41.542  0.00  0.00    +0.005 C 
ATOM     15  C   UNL     1      48.022  83.188  43.564  0.00  0.00    +0.005 C 
ATOM     16  C   UNL     1      48.663  81.981  42.912  0.00  0.00    +0.054 C 
ATOM     17  C   UNL     1      50.148  81.984  43.160  0.00  0.00    +0.005 C 
ATOM     18  O   UNL     1      48.977  80.982  40.760  0.00  0.00    -0.195 OA
ATOM     19  O   UNL     1      48.169  80.856  39.728  0.00  0.00    -0.195 OA
ENDROOT
BRANCH   1  20
ATOM     20  C   UNL     1      43.643  78.864  39.089  0.00  0.00    +0.087 C 
BRANCH  20  22
ATOM     21  N   UNL     1      42.148  76.975  38.475  0.00  0.00    -0.204 NA
ATOM     22  C   UNL     1      42.864  77.679  39.489  0.00  0.00    +0.241 C 
ATOM     23  O   UNL     1      42.806  77.271  40.674  0.00  0.00    -0.273 OA
BRANCH  21  24
ATOM     24  C   UNL     1      40.824  77.441  38.122  0.00  0.00    +0.133 C 
BRANCH  24  26
ATOM     25  C   UNL     1      40.928  76.282  35.946  0.00  0.00    +0.021 C 
ATOM     26  C   UNL     1      40.148  76.403  37.221  0.00  0.00    +0.097 C 
ATOM     27  C   UNL     1      38.756  76.920  36.887  0.00  0.00    +0.021 C 
ATOM     28  N   UNL     1      40.027  75.137  37.879  0.00  0.00    -0.133 NA
ENDBRANCH  24  26
ENDBRANCH  21  24
ENDBRANCH  20  22
ENDBRANCH   1  20
TORSDOF 4
