REMARK  Name = Ozanimod
REMARK  8 active torsions:
REMARK  status: ('A' for Active; 'I' for Inactive)
REMARK    1  A    between atoms: C_2  and  O_4
REMARK    2  A    between atoms: O_4  and  C_5
REMARK    3  A    between atoms: C_6  and  C_29
REMARK    4  A    between atoms: C_8  and  C_11
REMARK    5  A    between atoms: C_13  and  C_16
REMARK    6  A    between atoms: C_20  and  N_25
REMARK    7  A    between atoms: N_25  and  C_26
REMARK    8  A    between atoms: C_26  and  C_27
REMARK                            x       y       z     vdW  Elec       q    Type
REMARK                         _______ _______ _______ _____ _____    ______ ____
ROOT
ATOM      1  C   UNL     1      46.295  81.384  39.707  0.00  0.00    +0.260 A 
ATOM      2  N   UNL     1      45.463  80.347  39.913  0.00  0.00    -0.187 NA
ATOM      3  C   UNL     1      44.574  80.262  38.899  0.00  0.00    +0.203 A 
ATOM      4  N   UNL     1      44.899  81.278  38.083  0.00  0.00    -0.056 NA
ATOM      5  O   UNL     1      45.913  81.924  38.577  0.00  0.00    -0.332 OA
ENDROOT
BRANCH   3   6
ATOM      6  C   UNL     1      43.497  79.288  38.722  0.00  0.00    +0.035 A 
ATOM      7  C   UNL     1      43.322  78.306  39.668  0.00  0.00    -0.022 A 
ATOM      8  C   UNL     1      44.042  77.996  40.936  0.00  0.00    +0.028 C 
ATOM      9  C   UNL     1      42.908  77.308  41.712  0.00  0.00    +0.027 C 
ATOM     10  C   UNL     1      42.320  76.448  40.615  0.00  0.00    +0.095 C 
ATOM     11  C   UNL     1      42.300  77.404  39.471  0.00  0.00    -0.010 A 
ATOM     12  C   UNL     1      41.464  77.455  38.376  0.00  0.00    -0.003 A 
ATOM     13  C   UNL     1      41.635  78.442  37.420  0.00  0.00    -0.000 A 
ATOM     14  C   UNL     1      42.659  79.342  37.622  0.00  0.00    +0.003 A 
BRANCH  10  15
ATOM     15  N   UNL     1      43.208  75.388  40.253  0.00  0.00    -0.212 NA
BRANCH  15  16
ATOM     16  C   UNL     1      42.844  74.083  40.704  0.00  0.00    +0.124 C 
BRANCH  16  17
ATOM     17  C   UNL     1      41.381  73.831  40.348  0.00  0.00    +0.201 C 
ATOM     18  O   UNL     1      41.244  73.160  39.154  0.00  0.00    -0.219 OA
ENDBRANCH  16  17
ENDBRANCH  15  16
ENDBRANCH  10  15
ENDBRANCH   3   6
BRANCH   1  22
ATOM     19  C   UNL     1      49.547  82.753  42.142  0.00  0.00    +0.148 A 
ATOM     20  C   UNL     1      48.836  81.652  42.514  0.00  0.00    +0.102 A 
ATOM     21  C   UNL     1      47.776  81.214  41.711  0.00  0.00    +0.018 A 
ATOM     22  C   UNL     1      47.393  81.826  40.552  0.00  0.00    +0.057 A 
ATOM     23  C   UNL     1      48.123  82.949  40.179  0.00  0.00    +0.008 A 
ATOM     24  C   UNL     1      49.162  83.414  40.926  0.00  0.00    +0.038 A 
BRANCH  20  25
ATOM     25  C   UNL     1      49.143  80.916  43.714  0.00  0.00    +0.103 C 
ATOM     26  N   UNL     1      49.378  80.305  44.681  0.00  0.00    -0.191 NA
ENDBRANCH  20  25
BRANCH  19  27
ATOM     27  O   UNL     1      50.570  83.260  42.821  0.00  0.00    -0.478 OA
BRANCH  27  29
ATOM     28  C   UNL     1      50.599  85.206  44.110  0.00  0.00    +0.047 C 
ATOM     29  C   UNL     1      51.272  84.376  42.992  0.00  0.00    +0.166 C 
ATOM     30  C   UNL     1      52.678  84.005  43.546  0.00  0.00    +0.047 C 
ENDBRANCH  27  29
ENDBRANCH  19  27
ENDBRANCH   1  22
TORSDOF 8
