REMARK  Name = Ozenoxacin
REMARK  3 active torsions:
REMARK  status: ('A' for Active; 'I' for Inactive)
REMARK    1  A    between atoms: C_4  and  C_10
REMARK    2  A    between atoms: C_18  and  C_24
REMARK    3  A    between atoms: N_20  and  C_21
REMARK                            x       y       z     vdW  Elec       q    Type
REMARK                         _______ _______ _______ _____ _____    ______ ____
ROOT
ATOM      1  C   UNL     1      42.970  78.297  39.004  0.00  0.00    -0.001 A 
ATOM      2  C   UNL     1      43.910  78.392  40.007  0.00  0.00    -0.006 A 
ATOM      3  C   UNL     1      44.731  79.518  39.968  0.00  0.00    +0.059 A 
ATOM      4  C   UNL     1      44.579  80.461  38.968  0.00  0.00    +0.055 A 
ATOM      5  C   UNL     1      43.613  80.308  37.989  0.00  0.00    +0.005 A 
ATOM      6  C   UNL     1      42.810  79.231  38.005  0.00  0.00    -0.000 A 
ATOM      7  C   UNL     1      45.393  81.580  38.890  0.00  0.00    +0.205 A 
ATOM      8  O   UNL     1      45.198  82.399  37.952  0.00  0.00    -0.286 OA
ATOM      9  C   UNL     1      46.372  81.750  39.830  0.00  0.00    +0.136 A 
ATOM     10  C   UNL     1      46.485  80.793  40.800  0.00  0.00    +0.086 A 
ATOM     11  N   UNL     1      45.711  79.686  40.916  0.00  0.00    -0.328 N 
ATOM     12  C   UNL     1      44.007  77.370  41.028  0.00  0.00    +0.033 C 
ENDROOT
BRANCH   1  16
ATOM     13  C   UNL     1      38.938  76.425  36.905  0.00  0.00    +0.034 C 
ATOM     14  C   UNL     1      40.114  76.278  37.834  0.00  0.00    +0.011 A 
ATOM     15  C   UNL     1      40.999  77.313  38.031  0.00  0.00    +0.000 A 
ATOM     16  C   UNL     1      42.060  77.142  38.885  0.00  0.00    +0.019 A 
ATOM     17  C   UNL     1      42.225  75.954  39.527  0.00  0.00    +0.100 A 
ATOM     18  N   UNL     1      41.374  74.960  39.337  0.00  0.00    -0.228 NA
ATOM     19  C   UNL     1      40.323  75.086  38.510  0.00  0.00    +0.143 A 
ATOM     20  N   UNL     1      39.396  74.034  38.289  0.00  0.00    -0.219 NA
ATOM     21  C   UNL     1      39.531  72.722  38.887  0.00  0.00    +0.137 C 
ENDBRANCH   1  16
BRANCH  11  22
ATOM     22  C   UNL     1      45.896  78.728  41.992  0.00  0.00    +0.086 C 
ATOM     23  C   UNL     1      47.115  77.801  41.763  0.00  0.00    +0.024 C 
ATOM     24  C   UNL     1      47.181  78.784  42.836  0.00  0.00    +0.024 C 
ENDBRANCH  11  22
BRANCH   9  25
ATOM     25  C   UNL     1      47.244  82.892  39.796  0.00  0.00    +0.392 C 
ATOM     26  O   UNL     1      47.146  83.707  38.844  0.00  0.00    -0.240 OA
ATOM     27  O   UNL     1      48.206  83.166  40.754  0.00  0.00    -0.240 OA
ENDBRANCH   9  25
TORSDOF 3
