REMARK  Name = Pacritinib
REMARK  4 active torsions:
REMARK  status: ('A' for Active; 'I' for Inactive)
REMARK    1  A    between atoms: N_4  and  C_6
REMARK    2  A    between atoms: C_6  and  C_7
REMARK    3  A    between atoms: C_7  and  O_8
REMARK    4  A    between atoms: O_8  and  C_9
REMARK                            x       y       z     vdW  Elec       q    Type
REMARK                         _______ _______ _______ _____ _____    ______ ____
ROOT
ATOM      1  C   UNL     1      42.215  76.776  38.864  0.00  0.00    +0.137 A 
ATOM      2  C   UNL     1      42.728  77.442  40.030  0.00  0.00    +0.043 A 
ATOM      3  C   UNL     1      42.717  76.500  41.193  0.00  0.00    +0.172 C 
ATOM      4  O   UNL     1      43.888  75.849  41.457  0.00  0.00    -0.344 OA
ATOM      5  C   UNL     1      44.876  76.684  41.879  0.00  0.00    +0.169 C 
ATOM      6  C   UNL     1      44.618  77.228  43.220  0.00  0.00    +0.004 C 
ATOM      7  C   UNL     1      45.329  77.118  44.308  0.00  0.00    +0.004 C 
ATOM      8  C   UNL     1      46.613  76.389  44.456  0.00  0.00    +0.169 C 
ATOM      9  O   UNL     1      47.530  76.864  43.584  0.00  0.00    -0.344 OA
ATOM     10  C   UNL     1      48.138  78.074  43.882  0.00  0.00    +0.169 C 
ATOM     11  C   UNL     1      48.183  79.069  42.773  0.00  0.00    +0.007 A 
ATOM     12  C   UNL     1      47.148  79.708  42.127  0.00  0.00    -0.000 A 
ATOM     13  C   UNL     1      47.478  80.527  41.074  0.00  0.00    +0.018 A 
ATOM     14  C   UNL     1      48.810  80.713  40.679  0.00  0.00    +0.001 A 
ATOM     15  C   UNL     1      49.865  80.098  41.301  0.00  0.00    -0.000 A 
ATOM     16  C   UNL     1      49.508  79.282  42.343  0.00  0.00    -0.002 A 
ATOM     17  C   UNL     1      46.592  81.263  40.130  0.00  0.00    +0.086 A 
ATOM     18  N   UNL     1      45.452  80.812  39.612  0.00  0.00    -0.212 NA
ATOM     19  C   UNL     1      44.648  81.434  38.748  0.00  0.00    +0.241 A 
ATOM     20  N   UNL     1      45.011  82.643  38.346  0.00  0.00    -0.211 NA
ATOM     21  C   UNL     1      46.146  83.225  38.790  0.00  0.00    +0.103 A 
ATOM     22  C   UNL     1      46.936  82.547  39.676  0.00  0.00    +0.040 A 
ATOM     23  N   UNL     1      43.442  80.728  38.345  0.00  0.00    -0.178 NA
ATOM     24  C   UNL     1      43.062  79.400  38.754  0.00  0.00    +0.074 A 
ATOM     25  C   UNL     1      43.145  78.746  39.962  0.00  0.00    +0.018 A 
ATOM     26  C   UNL     1      42.549  78.713  37.624  0.00  0.00    +0.020 A 
ATOM     27  C   UNL     1      42.127  77.420  37.653  0.00  0.00    +0.038 A 
ENDROOT
BRANCH   1  28
ATOM     28  O   UNL     1      41.820  75.476  38.956  0.00  0.00    -0.474 OA
BRANCH  28  29
ATOM     29  C   UNL     1      40.745  74.811  39.384  0.00  0.00    +0.223 C 
BRANCH  29  30
ATOM     30  C   UNL     1      39.874  73.964  38.560  0.00  0.00    +0.120 C 
BRANCH  30  34
ATOM     31  C   UNL     1      38.258  71.812  40.795  0.00  0.00    +0.019 C 
ATOM     32  C   UNL     1      37.264  72.400  39.829  0.00  0.00    +0.019 C 
ATOM     33  C   UNL     1      38.081  72.423  38.543  0.00  0.00    +0.072 C 
ATOM     34  N   UNL     1      39.424  72.699  38.921  0.00  0.00    -0.270 NA
ATOM     35  C   UNL     1      39.576  72.356  40.311  0.00  0.00    +0.072 C 
ENDBRANCH  30  34
ENDBRANCH  29  30
ENDBRANCH  28  29
ENDBRANCH   1  28
TORSDOF 4
