REMARK  Name = Palbociclib
REMARK  3 active torsions:
REMARK  status: ('A' for Active; 'I' for Inactive)
REMARK    1  A    between atoms: C_3  and  C_31
REMARK    2  A    between atoms: N_6  and  C_26
REMARK    3  A    between atoms: C_17  and  N_20
REMARK                            x       y       z     vdW  Elec       q    Type
REMARK                         _______ _______ _______ _____ _____    ______ ____
ROOT
ATOM      1  C   UNL     1      48.036  83.638  40.164  0.00  0.00    +0.031 C 
ATOM      2  C   UNL     1      47.597  82.278  40.462  0.00  0.00    -0.010 A 
ATOM      3  C   UNL     1      48.088  81.537  41.509  0.00  0.00    +0.087 A 
ATOM      4  C   UNL     1      47.522  80.262  41.722  0.00  0.00    +0.264 A 
ATOM      5  O   UNL     1      47.990  79.593  42.701  0.00  0.00    -0.267 OA
ATOM      6  N   UNL     1      46.544  79.762  40.949  0.00  0.00    -0.282 N 
ATOM      7  C   UNL     1      46.090  80.499  39.940  0.00  0.00    +0.150 A 
ATOM      8  N   UNL     1      45.134  79.921  39.215  0.00  0.00    -0.195 NA
ATOM      9  C   UNL     1      44.620  80.583  38.165  0.00  0.00    +0.244 A 
ATOM     10  N   UNL     1      45.070  81.817  37.852  0.00  0.00    -0.210 NA
ATOM     11  C   UNL     1      46.044  82.427  38.573  0.00  0.00    +0.105 A 
ATOM     12  C   UNL     1      46.576  81.771  39.641  0.00  0.00    +0.050 A 
ATOM     13  N   UNL     1      43.632  80.036  37.312  0.00  0.00    -0.159 NA
ATOM     14  C   UNL     1      42.800  78.970  37.714  0.00  0.00    +0.155 A 
ATOM     15  N   UNL     1      41.705  78.663  37.022  0.00  0.00    -0.226 NA
ATOM     16  C   UNL     1      40.886  77.632  37.391  0.00  0.00    +0.115 A 
ATOM     17  C   UNL     1      41.133  76.850  38.488  0.00  0.00    +0.067 A 
ATOM     18  C   UNL     1      42.283  77.159  39.228  0.00  0.00    +0.019 A 
ATOM     19  C   UNL     1      43.093  78.219  38.820  0.00  0.00    +0.037 A 
ENDROOT
BRANCH  17  20
ATOM     20  N   UNL     1      40.255  75.800  38.815  0.00  0.00    -0.303 N 
ATOM     21  C   UNL     1      40.606  74.826  39.834  0.00  0.00    +0.110 C 
ATOM     22  C   UNL     1      40.496  73.441  39.236  0.00  0.00    +0.110 C 
ATOM     23  N   UNL     1      39.173  73.268  38.682  0.00  0.00    -0.214 NA
ATOM     24  C   UNL     1      38.960  74.189  37.611  0.00  0.00    +0.110 C 
ATOM     25  C   UNL     1      38.979  75.620  38.163  0.00  0.00    +0.110 C 
ENDBRANCH  17  20
BRANCH   6  26
ATOM     26  C   UNL     1      46.080  78.481  41.302  0.00  0.00    +0.090 C 
ATOM     27  C   UNL     1      46.868  77.298  41.356  0.00  0.00    +0.023 C 
ATOM     28  C   UNL     1      47.181  77.093  42.842  0.00  0.00    +0.002 C 
ATOM     29  C   UNL     1      45.754  77.290  43.385  0.00  0.00    +0.002 C 
ATOM     30  C   UNL     1      45.435  78.620  42.691  0.00  0.00    +0.023 C 
ENDBRANCH   6  26
BRANCH   3  31
ATOM     31  C   UNL     1      49.181  81.973  42.313  0.00  0.00    +0.178 C 
ATOM     32  O   UNL     1      50.309  82.118  41.676  0.00  0.00    -0.291 OA
ATOM     33  C   UNL     1      49.280  82.295  43.731  0.00  0.00    +0.077 C 
ENDBRANCH   3  31
TORSDOF 3
