REMARK  Name = Paliperidone
REMARK  4 active torsions:
REMARK  status: ('A' for Active; 'I' for Inactive)
REMARK    1  A    between atoms: C_3  and  C_14
REMARK    2  A    between atoms: C_14  and  C_15
REMARK    3  A    between atoms: C_15  and  N_16
REMARK    4  A    between atoms: C_19  and  C_22
REMARK                            x       y       z     vdW  Elec       q    Type
REMARK                         _______ _______ _______ _____ _____    ______ ____
ROOT
ATOM      1  N   UNL     1      45.104  80.538  40.214  0.00  0.00    -0.272 NA
ATOM      2  C   UNL     1      45.649  81.499  39.277  0.00  0.00    +0.072 C 
ATOM      3  C   UNL     1      47.054  81.915  39.594  0.00  0.00    +0.023 C 
ATOM      4  C   UNL     1      47.119  82.575  40.953  0.00  0.00    +0.046 C 
ATOM      5  C   UNL     1      46.253  81.873  41.946  0.00  0.00    +0.023 C 
ATOM      6  C   UNL     1      45.761  80.519  41.478  0.00  0.00    +0.072 C 
ENDROOT
BRANCH   4   7
ATOM      7  C   UNL     1      48.529  82.671  41.399  0.00  0.00    +0.100 A 
ATOM      8  N   UNL     1      49.579  81.902  41.067  0.00  0.00    -0.081 NA
ATOM      9  O   UNL     1      50.661  82.317  41.680  0.00  0.00    -0.354 OA
ATOM     10  C   UNL     1      50.393  83.355  42.429  0.00  0.00    +0.179 A 
ATOM     11  C   UNL     1      49.041  83.612  42.277  0.00  0.00    +0.054 A 
ATOM     12  C   UNL     1      48.459  84.660  42.951  0.00  0.00    +0.007 A 
ATOM     13  C   UNL     1      49.245  85.436  43.771  0.00  0.00    +0.030 A 
ATOM     14  C   UNL     1      50.597  85.190  43.932  0.00  0.00    +0.143 A 
ATOM     15  C   UNL     1      51.190  84.133  43.253  0.00  0.00    +0.070 A 
ATOM     16  F   UNL     1      51.332  85.999  44.764  0.00  0.00    -0.204 F 
ENDBRANCH   4   7
BRANCH   1  17
ATOM     17  C   UNL     1      45.046  79.207  39.650  0.00  0.00    +0.077 C 
BRANCH  17  18
ATOM     18  C   UNL     1      44.268  78.321  40.580  0.00  0.00    +0.050 C 
BRANCH  18  21
ATOM     19  C   UNL     1      43.498  75.590  41.340  0.00  0.00    +0.052 C 
ATOM     20  C   UNL     1      42.811  76.342  40.259  0.00  0.00    +0.061 A 
ATOM     21  C   UNL     1      43.169  77.607  39.908  0.00  0.00    +0.049 A 
ATOM     22  C   UNL     1      42.489  78.246  38.896  0.00  0.00    +0.259 A 
ATOM     23  O   UNL     1      42.761  79.412  38.515  0.00  0.00    -0.267 OA
ATOM     24  N   UNL     1      41.467  77.627  38.248  0.00  0.00    -0.282 N 
ATOM     25  C   UNL     1      40.761  78.313  37.184  0.00  0.00    +0.110 C 
ATOM     26  C   UNL     1      39.296  77.880  37.288  0.00  0.00    +0.028 C 
ATOM     27  C   UNL     1      39.241  76.416  36.968  0.00  0.00    +0.043 C 
ATOM     28  C   UNL     1      40.020  75.616  37.958  0.00  0.00    +0.208 C 
ATOM     29  C   UNL     1      41.122  76.388  38.598  0.00  0.00    +0.153 A 
ATOM     30  N   UNL     1      41.787  75.769  39.585  0.00  0.00    -0.234 NA
ATOM     31  O   UNL     1      40.515  74.461  37.324  0.00  0.00    -0.215 OA
ENDBRANCH  18  21
ENDBRANCH  17  18
ENDBRANCH   1  17
TORSDOF 4
