REMARK  Name = Palovarotene
REMARK  5 active torsions:
REMARK  status: ('A' for Active; 'I' for Inactive)
REMARK    1  A    between atoms: C_9  and  C_23
REMARK    2  A    between atoms: C_10  and  C_12
REMARK    3  A    between atoms: C_13  and  C_14
REMARK    4  A    between atoms: C_17  and  C_20
REMARK    5  A    between atoms: C_23  and  N_24
REMARK                            x       y       z     vdW  Elec       q    Type
REMARK                         _______ _______ _______ _____ _____    ______ ____
ROOT
ATOM      1  C   UNL     1      51.128  81.871  43.950  0.00  0.00    +0.004 C 
ATOM      2  C   UNL     1      50.678  82.639  42.692  0.00  0.00    +0.019 C 
ATOM      3  C   UNL     1      50.531  84.057  43.079  0.00  0.00    +0.004 C 
ATOM      4  C   UNL     1      49.346  84.769  42.481  0.00  0.00    +0.004 C 
ATOM      5  C   UNL     1      48.079  83.961  42.614  0.00  0.00    +0.019 C 
ATOM      6  C   UNL     1      48.267  82.559  42.178  0.00  0.00    -0.027 A 
ATOM      7  C   UNL     1      49.481  81.950  42.211  0.00  0.00    -0.027 A 
ATOM      8  C   UNL     1      49.546  80.647  41.776  0.00  0.00    -0.007 A 
ATOM      9  C   UNL     1      48.447  79.928  41.310  0.00  0.00    +0.002 A 
ATOM     10  C   UNL     1      47.212  80.557  41.282  0.00  0.00    -0.002 A 
ATOM     11  C   UNL     1      47.137  81.858  41.713  0.00  0.00    -0.005 A 
ATOM     12  C   UNL     1      47.065  84.583  41.659  0.00  0.00    +0.004 C 
ATOM     13  C   UNL     1      47.464  84.057  43.994  0.00  0.00    +0.004 C 
ATOM     14  C   UNL     1      51.849  82.513  41.735  0.00  0.00    +0.004 C 
ENDROOT
BRANCH  10  15
ATOM     15  C   UNL     1      46.013  79.862  40.855  0.00  0.00    -0.000 C 
ATOM     16  C   UNL     1      45.114  80.302  40.013  0.00  0.00    -0.000 C 
BRANCH  16  17
ATOM     17  C   UNL     1      43.980  79.548  39.497  0.00  0.00    +0.000 A 
ATOM     18  C   UNL     1      43.292  79.891  38.365  0.00  0.00    +0.000 A 
ATOM     19  C   UNL     1      42.219  79.158  37.876  0.00  0.00    +0.007 A 
ATOM     20  C   UNL     1      41.795  78.031  38.525  0.00  0.00    +0.080 A 
ATOM     21  C   UNL     1      42.480  77.669  39.672  0.00  0.00    +0.007 A 
ATOM     22  C   UNL     1      43.539  78.401  40.147  0.00  0.00    +0.000 A 
BRANCH  20  23
ATOM     23  C   UNL     1      40.679  77.236  38.048  0.00  0.00    +0.388 C 
ATOM     24  O   UNL     1      40.284  76.262  38.712  0.00  0.00    -0.241 OA
ATOM     25  O   UNL     1      40.054  77.556  36.863  0.00  0.00    -0.241 OA
ENDBRANCH  20  23
ENDBRANCH  16  17
ENDBRANCH  10  15
BRANCH   9  26
ATOM     26  C   UNL     1      48.628  78.536  40.820  0.00  0.00    +0.154 C 
BRANCH  26  27
ATOM     27  N   UNL     1      47.655  77.681  41.449  0.00  0.00    -0.245 N 
ATOM     28  C   UNL     1      46.853  76.776  40.818  0.00  0.00    +0.097 A 
ATOM     29  C   UNL     1      46.075  76.162  41.757  0.00  0.00    +0.043 A 
ATOM     30  C   UNL     1      46.412  76.701  42.959  0.00  0.00    +0.122 A 
ATOM     31  N   UNL     1      47.365  77.609  42.718  0.00  0.00    -0.167 NA
ENDBRANCH  26  27
ENDBRANCH   9  26
TORSDOF 5
