REMARK  Name = Palonosetron
REMARK  1 active torsions:
REMARK  status: ('A' for Active; 'I' for Inactive)
REMARK    1  A    between atoms: N_5  and  C_15
REMARK                            x       y       z     vdW  Elec       q    Type
REMARK                         _______ _______ _______ _____ _____    ______ ____
ROOT
ATOM      1  C   UNL     1      51.246  81.815  43.125  0.00  0.00    +0.005 C 
ATOM      2  C   UNL     1      50.606  81.255  41.917  0.00  0.00    +0.006 C 
ATOM      3  C   UNL     1      49.084  81.191  41.993  0.00  0.00    +0.042 C 
ATOM      4  C   UNL     1      48.608  80.639  40.665  0.00  0.00    +0.098 C 
ATOM      5  N   UNL     1      47.216  80.934  40.405  0.00  0.00    -0.276 N 
ATOM      6  C   UNL     1      46.855  82.297  40.595  0.00  0.00    +0.249 C 
ATOM      7  O   UNL     1      45.898  82.721  39.904  0.00  0.00    -0.270 OA
ATOM      8  C   UNL     1      47.567  83.138  41.540  0.00  0.00    +0.049 A 
ATOM      9  C   UNL     1      47.197  84.439  41.783  0.00  0.00    +0.004 A 
ATOM     10  C   UNL     1      47.888  85.175  42.753  0.00  0.00    -0.000 A 
ATOM     11  C   UNL     1      48.922  84.634  43.466  0.00  0.00    -0.005 A 
ATOM     12  C   UNL     1      49.288  83.315  43.212  0.00  0.00    -0.026 A 
ATOM     13  C   UNL     1      48.611  82.580  42.252  0.00  0.00    -0.020 A 
ATOM     14  C   UNL     1      50.373  82.665  43.973  0.00  0.00    +0.026 C 
ENDROOT
BRANCH   5  15
ATOM     15  C   UNL     1      46.351  79.886  40.008  0.00  0.00    +0.092 C 
ATOM     16  C   UNL     1      45.351  80.298  38.950  0.00  0.00    +0.092 C 
ATOM     17  N   UNL     1      44.356  79.212  38.922  0.00  0.00    -0.271 NA
ATOM     18  C   UNL     1      44.973  77.922  39.047  0.00  0.00    +0.072 C 
ATOM     19  C   UNL     1      45.440  77.689  40.474  0.00  0.00    +0.019 C 
ATOM     20  C   UNL     1      45.640  79.111  41.057  0.00  0.00    +0.022 C 
ATOM     21  C   UNL     1      44.213  79.543  41.320  0.00  0.00    +0.019 C 
ATOM     22  C   UNL     1      43.437  79.526  40.002  0.00  0.00    +0.072 C 
ENDBRANCH   5  15
TORSDOF 1
