REMARK  Name = Pamidronate
REMARK  4 active torsions:
REMARK  status: ('A' for Active; 'I' for Inactive)
REMARK    1  A    between atoms: C_1  and  C_2
REMARK    2  A    between atoms: C_1  and  C_4
REMARK    3  A    between atoms: C_4  and  P_6
REMARK    4  A    between atoms: C_4  and  P_10
REMARK                            x       y       z     vdW  Elec       q    Type
REMARK                         _______ _______ _______ _____ _____    ______ ____
ROOT
ATOM      1  C   UNL     1      47.024  80.860  39.939  0.00  0.00    +0.319 C 
ATOM      2  O   UNL     1      47.786  80.043  39.093  0.00  0.00    -0.200 OA
ENDROOT
BRANCH   1   3
ATOM      3  P   UNL     1      48.221  81.604  41.113  0.00  0.00    +0.433 P 
ATOM      4  O   UNL     1      47.405  82.472  42.073  0.00  0.00    -0.250 OA
ATOM      5  O   UNL     1      49.349  82.541  40.304  0.00  0.00    -0.136 OA
ATOM      6  O   UNL     1      48.963  80.412  42.045  0.00  0.00    -0.136 OA
ENDBRANCH   1   3
BRANCH   1   7
ATOM      7  P   UNL     1      46.267  82.156  39.008  0.00  0.00    +0.433 P 
ATOM      8  O   UNL     1      44.874  81.756  38.549  0.00  0.00    -0.250 OA
ATOM      9  O   UNL     1      46.044  83.536  39.996  0.00  0.00    -0.136 OA
ATOM     10  O   UNL     1      47.105  82.588  37.608  0.00  0.00    -0.136 OA
ENDBRANCH   1   7
BRANCH   1  11
ATOM     11  C   UNL     1      46.127  79.998  40.746  0.00  0.00    +0.075 C 
BRANCH  11  12
ATOM     12  C   UNL     1      45.320  78.998  39.986  0.00  0.00    +0.113 C 
ATOM     13  N   UNL     1      44.450  78.206  40.813  0.00  0.00    -0.131 NA
ENDBRANCH  11  12
ENDBRANCH   1  11
TORSDOF 4
