REMARK  Name = Pancuronium
REMARK  6 active torsions:
REMARK  status: ('A' for Active; 'I' for Inactive)
REMARK    1  A    between atoms: C_2  and  O_4
REMARK    2  A    between atoms: O_4  and  C_5
REMARK    3  A    between atoms: C_14  and  N_15
REMARK    4  A    between atoms: C_28  and  N_34
REMARK    5  A    between atoms: C_29  and  O_30
REMARK    6  A    between atoms: O_30  and  C_31
REMARK                            x       y       z     vdW  Elec       q    Type
REMARK                         _______ _______ _______ _____ _____    ______ ____
ROOT
ATOM      1  C   UNL     1      42.483  77.781  39.091  0.00  0.00    +0.151 C 
ATOM      2  C   UNL     1      42.603  79.262  38.751  0.00  0.00    +0.041 C 
ATOM      3  C   UNL     1      43.625  79.971  39.613  0.00  0.00    +0.003 C 
ATOM      4  C   UNL     1      44.109  81.149  38.784  0.00  0.00    +0.000 C 
ATOM      5  C   UNL     1      45.404  81.712  39.219  0.00  0.00    +0.000 C 
ATOM      6  C   UNL     1      45.800  81.279  40.638  0.00  0.00    +0.000 C 
ATOM      7  C   UNL     1      45.725  79.827  40.867  0.00  0.00    -0.000 C 
ATOM      8  C   UNL     1      44.795  79.086  39.892  0.00  0.00    -0.002 C 
ATOM      9  C   UNL     1      44.397  77.789  40.579  0.00  0.00    -0.017 C 
ATOM     10  C   UNL     1      42.891  77.634  40.517  0.00  0.00    -0.013 C 
ATOM     11  C   UNL     1      45.468  78.726  38.612  0.00  0.00    -0.000 C 
ATOM     12  C   UNL     1      46.980  79.048  40.954  0.00  0.00    +0.000 C 
ATOM     13  C   UNL     1      48.262  79.820  41.020  0.00  0.00    +0.003 C 
ATOM     14  C   UNL     1      48.000  81.074  41.816  0.00  0.00    +0.035 C 
ATOM     15  C   UNL     1      47.128  81.904  40.874  0.00  0.00    +0.001 C 
ATOM     16  C   UNL     1      47.121  83.217  41.578  0.00  0.00    -0.017 C 
ATOM     17  C   UNL     1      48.582  83.379  41.921  0.00  0.00    -0.013 C 
ATOM     18  C   UNL     1      49.191  82.005  41.882  0.00  0.00    +0.150 C 
ATOM     19  C   UNL     1      47.361  80.807  43.125  0.00  0.00    +0.004 C 
ENDROOT
BRANCH  10  20
ATOM     20  N   UNL     1      42.416  76.472  41.195  0.00  0.00    +0.392 N 
ATOM     21  C   UNL     1      42.891  75.313  40.464  0.00  0.00    -0.073 C 
ATOM     22  C   UNL     1      42.505  74.003  41.075  0.00  0.00    -0.022 C 
ATOM     23  C   UNL     1      40.995  73.919  41.090  0.00  0.00    -0.004 C 
ATOM     24  C   UNL     1      40.355  75.165  41.605  0.00  0.00    -0.022 C 
ATOM     25  C   UNL     1      40.965  76.441  41.108  0.00  0.00    -0.073 C 
ATOM     26  C   UNL     1      42.855  76.344  42.566  0.00  0.00    -0.096 C 
ENDBRANCH  10  20
BRANCH  17  27
ATOM     27  N   UNL     1      48.871  84.150  43.072  0.00  0.00    +0.392 N 
ATOM     28  C   UNL     1      49.276  83.282  44.193  0.00  0.00    -0.073 C 
ATOM     29  C   UNL     1      50.126  83.988  45.189  0.00  0.00    -0.022 C 
ATOM     30  C   UNL     1      51.499  84.369  44.634  0.00  0.00    -0.004 C 
ATOM     31  C   UNL     1      51.298  84.603  43.151  0.00  0.00    -0.022 C 
ATOM     32  C   UNL     1      49.886  85.142  42.953  0.00  0.00    -0.073 C 
ATOM     33  C   UNL     1      47.673  84.837  43.597  0.00  0.00    -0.096 C 
ENDBRANCH  17  27
BRANCH   1  34
ATOM     34  O   UNL     1      41.177  77.411  38.780  0.00  0.00    -0.454 OA
BRANCH  34  36
ATOM     35  C   UNL     1      39.822  78.385  36.878  0.00  0.00    +0.121 C 
ATOM     36  C   UNL     1      40.775  77.389  37.453  0.00  0.00    +0.317 C 
ATOM     37  O   UNL     1      41.201  76.511  36.646  0.00  0.00    -0.250 OA
ENDBRANCH  34  36
ENDBRANCH   1  34
BRANCH  18  38
ATOM     38  O   UNL     1      49.911  81.763  40.661  0.00  0.00    -0.454 OA
BRANCH  38  39
ATOM     39  C   UNL     1      51.206  82.165  40.479  0.00  0.00    +0.317 C 
ATOM     40  O   UNL     1      52.095  81.510  41.108  0.00  0.00    -0.250 OA
ATOM     41  C   UNL     1      51.584  83.315  39.590  0.00  0.00    +0.121 C 
ENDBRANCH  38  39
ENDBRANCH  18  38
TORSDOF 6
