REMARK  Name = Panipenem
REMARK  4 active torsions:
REMARK  status: ('A' for Active; 'I' for Inactive)
REMARK    1  A    between atoms: C_2  and  C_3
REMARK    2  A    between atoms: C_6  and  S_14
REMARK    3  A    between atoms: C_7  and  C_11
REMARK    4  A    between atoms: S_14  and  C_15
REMARK                            x       y       z     vdW  Elec       q    Type
REMARK                         _______ _______ _______ _____ _____    ______ ____
ROOT
ATOM      1  C   UNL     1      45.127  77.881  40.740  0.00  0.00    +0.126 C 
ATOM      2  C   UNL     1      45.415  79.251  41.253  0.00  0.00    +0.096 C 
ATOM      3  C   UNL     1      46.864  79.690  41.266  0.00  0.00    +0.055 C 
ATOM      4  C   UNL     1      46.872  80.887  40.413  0.00  0.00    +0.025 C 
ATOM      5  C   UNL     1      45.806  80.865  39.613  0.00  0.00    +0.136 C 
ATOM      6  N   UNL     1      45.067  79.695  39.889  0.00  0.00    -0.254 N 
ATOM      7  C   UNL     1      44.200  78.588  39.813  0.00  0.00    +0.233 C 
ATOM      8  O   UNL     1      43.122  78.323  39.220  0.00  0.00    -0.274 OA
ENDROOT
BRANCH   1  10
ATOM      9  C   UNL     1      44.875  75.492  41.476  0.00  0.00    +0.036 C 
ATOM     10  C   UNL     1      44.473  76.919  41.680  0.00  0.00    +0.162 C 
ATOM     11  O   UNL     1      44.721  77.357  42.980  0.00  0.00    -0.223 OA
ENDBRANCH   1  10
BRANCH   5  12
ATOM     12  C   UNL     1      45.444  81.890  38.600  0.00  0.00    +0.401 C 
ATOM     13  O   UNL     1      46.133  82.931  38.510  0.00  0.00    -0.239 OA
ATOM     14  O   UNL     1      44.368  81.692  37.779  0.00  0.00    -0.239 OA
ENDBRANCH   5  12
BRANCH   4  15
ATOM     15  S   UNL     1      48.039  82.203  40.358  0.00  0.00    -0.116 S 
BRANCH  15  16
ATOM     16  C   UNL     1      49.140  82.377  41.719  0.00  0.00    +0.073 C 
ATOM     17  C   UNL     1      50.590  82.635  41.369  0.00  0.00    +0.034 C 
ATOM     18  C   UNL     1      51.258  82.499  42.719  0.00  0.00    +0.093 C 
ATOM     19  N   UNL     1      50.354  81.731  43.540  0.00  0.00    -0.294 N 
ATOM     20  C   UNL     1      49.206  81.291  42.724  0.00  0.00    +0.103 C 
ATOM     21  C   UNL     1      50.575  81.469  44.912  0.00  0.00    +0.131 C 
ATOM     22  N   UNL     1      51.707  81.752  45.434  0.00  0.00    -0.137 NA
ATOM     23  C   UNL     1      49.518  80.869  45.758  0.00  0.00    +0.071 C 
ENDBRANCH  15  16
ENDBRANCH   4  15
TORSDOF 4
