REMARK  Name = Panobinostat
REMARK  7 active torsions:
REMARK  status: ('A' for Active; 'I' for Inactive)
REMARK    1  A    between atoms: C_3  and  C_11
REMARK    2  A    between atoms: C_11  and  C_12
REMARK    3  A    between atoms: C_12  and  N_13
REMARK    4  A    between atoms: N_13  and  C_14
REMARK    5  A    between atoms: C_14  and  C_15
REMARK    6  A    between atoms: C_18  and  C_21
REMARK    7  A    between atoms: C_22  and  C_23
REMARK                            x       y       z     vdW  Elec       q    Type
REMARK                         _______ _______ _______ _____ _____    ______ ____
ROOT
ATOM      1  N   UNL     1      44.463  79.109  38.931  0.00  0.00    -0.213 NA
ENDROOT
BRANCH   1   2
ATOM      2  C   UNL     1      43.303  78.545  39.542  0.00  0.00    +0.094 C 
BRANCH   2   3
ATOM      3  C   UNL     1      43.220  77.057  39.500  0.00  0.00    +0.046 C 
BRANCH   3   6
ATOM      4  C   UNL     1      41.449  78.466  37.224  0.00  0.00    +0.052 C 
ATOM      5  C   UNL     1      41.113  77.271  38.001  0.00  0.00    +0.055 A 
ATOM      6  C   UNL     1      41.883  76.657  38.977  0.00  0.00    -0.006 A 
ATOM      7  C   UNL     1      41.118  75.567  39.388  0.00  0.00    +0.015 A 
ATOM      8  C   UNL     1      41.412  74.618  40.342  0.00  0.00    +0.001 A 
ATOM      9  C   UNL     1      40.528  73.594  40.624  0.00  0.00    +0.000 A 
ATOM     10  C   UNL     1      39.348  73.563  39.918  0.00  0.00    +0.002 A 
ATOM     11  C   UNL     1      39.056  74.498  38.977  0.00  0.00    +0.019 A 
ATOM     12  C   UNL     1      39.946  75.526  38.693  0.00  0.00    +0.081 A 
ATOM     13  N   UNL     1      39.960  76.565  37.859  0.00  0.00    -0.250 NA
ENDBRANCH   3   6
ENDBRANCH   2   3
ENDBRANCH   1   2
BRANCH   1  14
ATOM     14  C   UNL     1      44.585  80.528  39.006  0.00  0.00    +0.115 C 
BRANCH  14  15
ATOM     15  C   UNL     1      45.811  80.815  39.815  0.00  0.00    -0.005 A 
ATOM     16  C   UNL     1      46.642  81.854  39.515  0.00  0.00    -0.003 A 
ATOM     17  C   UNL     1      47.746  82.103  40.255  0.00  0.00    -0.000 A 
ATOM     18  C   UNL     1      48.130  81.326  41.381  0.00  0.00    +0.000 A 
ATOM     19  C   UNL     1      47.260  80.299  41.638  0.00  0.00    -0.000 A 
ATOM     20  C   UNL     1      46.120  80.035  40.878  0.00  0.00    -0.003 A 
BRANCH  18  21
ATOM     21  C   UNL     1      49.275  81.716  42.142  0.00  0.00    +0.005 C 
ATOM     22  C   UNL     1      50.117  82.658  42.062  0.00  0.00    +0.062 C 
BRANCH  22  23
ATOM     23  C   UNL     1      51.293  83.026  42.763  0.00  0.00    +0.293 C 
ATOM     24  O   UNL     1      51.390  83.777  43.737  0.00  0.00    -0.266 OA
ATOM     25  N   UNL     1      52.578  82.491  42.338  0.00  0.00    -0.024 NA
ATOM     26  O   UNL     1      53.333  83.138  41.432  0.00  0.00    -0.070 OA
ENDBRANCH  22  23
ENDBRANCH  18  21
ENDBRANCH  14  15
ENDBRANCH   1  14
TORSDOF 7
