REMARK  Name = Pantothenic_acid
REMARK  6 active torsions:
REMARK  status: ('A' for Active; 'I' for Inactive)
REMARK    1  A    between atoms: C_2  and  C_4
REMARK    2  A    between atoms: C_2  and  C_6
REMARK    3  A    between atoms: C_6  and  C_7
REMARK    4  A    between atoms: N_9  and  C_10
REMARK    5  A    between atoms: C_10  and  C_11
REMARK    6  A    between atoms: C_11  and  C_12
REMARK                            x       y       z     vdW  Elec       q    Type
REMARK                         _______ _______ _______ _____ _____    ______ ____
ROOT
ATOM      1  C   UNL     1      47.866  82.030  41.163  0.00  0.00    +0.272 C 
ATOM      2  O   UNL     1      47.030  82.819  40.630  0.00  0.00    -0.271 OA
ATOM      3  N   UNL     1      47.493  80.688  41.336  0.00  0.00    -0.203 NA
ENDROOT
BRANCH   1   4
ATOM      4  C   UNL     1      49.184  82.593  41.569  0.00  0.00    +0.231 C 
ATOM      5  O   UNL     1      50.074  81.512  41.781  0.00  0.00    -0.213 OA
BRANCH   4   7
ATOM      6  C   UNL     1      48.812  82.454  44.030  0.00  0.00    +0.006 C 
ATOM      7  C   UNL     1      49.117  83.398  42.854  0.00  0.00    +0.067 C 
ATOM      8  C   UNL     1      47.985  84.365  42.800  0.00  0.00    +0.006 C 
BRANCH   7   9
ATOM      9  C   UNL     1      50.438  84.013  43.139  0.00  0.00    +0.185 C 
ATOM     10  O   UNL     1      51.474  83.040  43.126  0.00  0.00    -0.220 OA
ENDBRANCH   7   9
ENDBRANCH   4   7
ENDBRANCH   1   4
BRANCH   3  11
ATOM     11  C   UNL     1      46.241  80.051  41.215  0.00  0.00    +0.127 C 
BRANCH  11  12
ATOM     12  C   UNL     1      45.737  79.621  39.904  0.00  0.00    +0.137 C 
BRANCH  12  13
ATOM     13  C   UNL     1      44.495  78.859  39.955  0.00  0.00    +0.367 C 
ATOM     14  O   UNL     1      44.189  78.185  40.998  0.00  0.00    -0.246 OA
ATOM     15  O   UNL     1      43.644  78.880  38.846  0.00  0.00    -0.246 OA
ENDBRANCH  12  13
ENDBRANCH  11  12
ENDBRANCH   3  11
TORSDOF 6
