REMARK  Name = Papaverine
REMARK  6 active torsions:
REMARK  status: ('A' for Active; 'I' for Inactive)
REMARK    1  A    between atoms: O_2  and  C_3
REMARK    2  A    between atoms: C_4  and  O_24
REMARK    3  A    between atoms: C_6  and  C_9
REMARK    4  A    between atoms: C_9  and  C_10
REMARK    5  A    between atoms: C_16  and  O_22
REMARK    6  A    between atoms: C_17  and  O_20
REMARK                            x       y       z     vdW  Elec       q    Type
REMARK                         _______ _______ _______ _____ _____    ______ ____
ROOT
ATOM      1  C   UNL     1      46.783  81.348  40.517  0.00  0.00    +0.063 A 
ATOM      2  N   UNL     1      47.150  82.376  39.762  0.00  0.00    -0.248 NA
ATOM      3  C   UNL     1      46.547  82.624  38.599  0.00  0.00    +0.098 A 
ATOM      4  C   UNL     1      45.523  81.841  38.117  0.00  0.00    +0.021 A 
ATOM      5  C   UNL     1      45.112  80.762  38.873  0.00  0.00    +0.006 A 
ATOM      6  C   UNL     1      44.095  79.927  38.466  0.00  0.00    +0.040 A 
ATOM      7  C   UNL     1      43.724  78.868  39.255  0.00  0.00    +0.172 A 
ATOM      8  C   UNL     1      44.331  78.589  40.464  0.00  0.00    +0.172 A 
ATOM      9  C   UNL     1      45.342  79.440  40.842  0.00  0.00    +0.041 A 
ATOM     10  C   UNL     1      45.757  80.538  40.066  0.00  0.00    +0.017 A 
ENDROOT
BRANCH   8  11
ATOM     11  O   UNL     1      43.933  77.509  41.239  0.00  0.00    -0.468 OA
ATOM     12  C   UNL     1      44.686  77.133  42.362  0.00  0.00    +0.253 C 
ENDBRANCH   8  11
BRANCH   7  13
ATOM     13  O   UNL     1      42.700  78.023  38.850  0.00  0.00    -0.468 OA
ATOM     14  C   UNL     1      42.072  78.200  37.597  0.00  0.00    +0.253 C 
ENDBRANCH   7  13
BRANCH   1  15
ATOM     15  C   UNL     1      47.378  80.987  41.811  0.00  0.00    +0.072 C 
BRANCH  15  19
ATOM     16  C   UNL     1      49.465  83.996  43.886  0.00  0.00    +0.172 A 
ATOM     17  C   UNL     1      50.157  83.000  43.227  0.00  0.00    +0.172 A 
ATOM     18  C   UNL     1      49.444  82.028  42.556  0.00  0.00    +0.036 A 
ATOM     19  C   UNL     1      48.062  82.033  42.531  0.00  0.00    -0.013 A 
ATOM     20  C   UNL     1      47.389  83.053  43.207  0.00  0.00    -0.001 A 
ATOM     21  C   UNL     1      48.087  84.032  43.883  0.00  0.00    +0.040 A 
BRANCH  16  23
ATOM     22  C   UNL     1      51.534  85.196  44.349  0.00  0.00    +0.253 C 
ATOM     23  O   UNL     1      50.164  84.986  44.569  0.00  0.00    -0.468 OA
ENDBRANCH  16  23
BRANCH  17  24
ATOM     24  O   UNL     1      51.555  82.996  43.252  0.00  0.00    -0.468 OA
ATOM     25  C   UNL     1      52.266  82.517  42.127  0.00  0.00    +0.253 C 
ENDBRANCH  17  24
ENDBRANCH  15  19
ENDBRANCH   1  15
TORSDOF 6
