REMARK  Name = Paramethasone
REMARK  2 active torsions:
REMARK  status: ('A' for Active; 'I' for Inactive)
REMARK    1  A    between atoms: C_19  and  C_20
REMARK    2  A    between atoms: C_20  and  C_22
REMARK                            x       y       z     vdW  Elec       q    Type
REMARK                         _______ _______ _______ _____ _____    ______ ____
ROOT
ATOM      1  C   UNL     1      50.745  81.053  41.854  0.00  0.00    +0.003 C 
ATOM      2  C   UNL     1      49.389  81.289  41.265  0.00  0.00    +0.035 C 
ATOM      3  C   UNL     1      48.349  80.329  41.713  0.00  0.00    +0.003 C 
ATOM      4  C   UNL     1      47.135  81.171  41.826  0.00  0.00    +0.003 C 
ATOM      5  C   UNL     1      45.847  80.448  41.386  0.00  0.00    +0.006 C 
ATOM      6  C   UNL     1      45.907  79.119  42.034  0.00  0.00    +0.040 C 
ATOM      7  C   UNL     1      45.493  77.924  41.240  0.00  0.00    +0.180 C 
ATOM      8  C   UNL     1      44.469  78.363  40.268  0.00  0.00    -0.006 C 
ATOM      9  C   UNL     1      43.270  77.849  40.345  0.00  0.00    +0.036 C 
ATOM     10  C   UNL     1      42.267  78.272  39.402  0.00  0.00    +0.195 C 
ATOM     11  O   UNL     1      41.121  77.764  39.495  0.00  0.00    -0.287 OA
ATOM     12  C   UNL     1      42.605  79.245  38.405  0.00  0.00    +0.038 C 
ATOM     13  C   UNL     1      43.809  79.731  38.362  0.00  0.00    -0.020 C 
ATOM     14  C   UNL     1      44.927  79.370  39.281  0.00  0.00    +0.039 C 
ATOM     15  C   UNL     1      45.544  80.557  39.959  0.00  0.00    +0.038 C 
ATOM     16  C   UNL     1      46.698  81.153  39.132  0.00  0.00    +0.153 C 
ATOM     17  C   UNL     1      47.047  82.512  39.702  0.00  0.00    +0.036 C 
ATOM     18  C   UNL     1      47.380  82.468  41.178  0.00  0.00    +0.035 C 
ATOM     19  C   UNL     1      48.861  82.667  41.407  0.00  0.00    +0.180 C 
ATOM     20  O   UNL     1      49.382  83.505  40.382  0.00  0.00    -0.218 OA
ATOM     21  C   UNL     1      46.547  83.519  41.876  0.00  0.00    +0.003 C 
ATOM     22  O   UNL     1      46.155  81.403  37.870  0.00  0.00    -0.223 OA
ATOM     23  C   UNL     1      45.923  78.645  38.373  0.00  0.00    +0.009 C 
ATOM     24  F   UNL     1      46.592  77.325  40.655  0.00  0.00    -0.233 F 
ENDROOT
BRANCH  19  25
ATOM     25  C   UNL     1      49.090  83.335  42.670  0.00  0.00    +0.211 C 
ATOM     26  O   UNL     1      48.704  82.725  43.691  0.00  0.00    -0.291 OA
BRANCH  25  27
ATOM     27  C   UNL     1      49.712  84.637  42.953  0.00  0.00    +0.248 C 
ATOM     28  O   UNL     1      49.113  85.258  44.090  0.00  0.00    -0.212 OA
ENDBRANCH  25  27
ENDBRANCH  19  25
TORSDOF 2
