REMARK  Name = Paricalcitol
REMARK  5 active torsions:
REMARK  status: ('A' for Active; 'I' for Inactive)
REMARK    1  A    between atoms: C_2  and  C_3
REMARK    2  A    between atoms: C_2  and  C_11
REMARK    3  A    between atoms: C_4  and  C_5
REMARK    4  A    between atoms: C_5  and  C_7
REMARK    5  A    between atoms: C_20  and  C_21
REMARK                            x       y       z     vdW  Elec       q    Type
REMARK                         _______ _______ _______ _____ _____    ______ ____
ROOT
ATOM      1  C   UNL     1      45.449  77.568  41.243  0.00  0.00    +0.004 C 
ATOM      2  C   UNL     1      45.426  78.297  42.590  0.00  0.00    +0.001 C 
ATOM      3  C   UNL     1      46.008  79.655  42.328  0.00  0.00    +0.004 C 
ATOM      4  C   UNL     1      46.572  79.596  40.933  0.00  0.00    +0.018 C 
ATOM      5  C   UNL     1      45.534  78.656  40.260  0.00  0.00    +0.004 C 
ATOM      6  C   UNL     1      44.273  79.472  40.167  0.00  0.00    +0.001 C 
ATOM      7  C   UNL     1      44.412  80.665  39.293  0.00  0.00    +0.004 C 
ATOM      8  C   UNL     1      45.691  81.412  39.372  0.00  0.00    +0.022 C 
ATOM      9  C   UNL     1      46.712  80.868  40.256  0.00  0.00    -0.045 C 
ATOM     10  C   UNL     1      47.827  81.585  40.457  0.00  0.00    -0.009 C 
ATOM     11  C   UNL     1      46.050  78.320  38.889  0.00  0.00    +0.000 C 
ENDROOT
BRANCH  10  12
ATOM     12  C   UNL     1      47.858  82.641  41.457  0.00  0.00    -0.009 C 
ATOM     13  C   UNL     1      48.989  82.984  42.022  0.00  0.00    -0.039 C 
ATOM     14  C   UNL     1      49.044  83.463  43.435  0.00  0.00    +0.055 C 
ATOM     15  C   UNL     1      50.029  84.636  43.410  0.00  0.00    +0.159 C 
ATOM     16  C   UNL     1      51.396  84.062  43.183  0.00  0.00    +0.066 C 
ATOM     17  C   UNL     1      51.462  82.955  42.189  0.00  0.00    +0.159 C 
ATOM     18  C   UNL     1      50.256  82.893  41.266  0.00  0.00    +0.055 C 
ATOM     19  O   UNL     1      52.593  83.079  41.376  0.00  0.00    -0.223 OA
ATOM     20  O   UNL     1      50.041  85.266  44.647  0.00  0.00    -0.223 OA
ENDBRANCH  10  12
BRANCH   1  22
ATOM     21  C   UNL     1      43.502  76.787  42.535  0.00  0.00    +0.005 C 
ATOM     22  C   UNL     1      44.188  76.691  41.173  0.00  0.00    +0.022 C 
BRANCH  22  23
ATOM     23  C   UNL     1      43.267  77.170  40.180  0.00  0.00    -0.031 C 
ATOM     24  C   UNL     1      42.464  77.588  39.314  0.00  0.00    -0.029 C 
BRANCH  24  25
ATOM     25  C   UNL     1      41.037  77.380  38.992  0.00  0.00    +0.050 C 
ATOM     26  C   UNL     1      40.589  75.957  38.970  0.00  0.00    +0.007 C 
BRANCH  25  27
ATOM     27  C   UNL     1      40.673  78.008  37.657  0.00  0.00    +0.130 C 
ATOM     28  C   UNL     1      40.975  79.487  37.796  0.00  0.00    +0.033 C 
ATOM     29  C   UNL     1      41.376  77.395  36.492  0.00  0.00    +0.033 C 
ATOM     30  O   UNL     1      39.299  77.884  37.468  0.00  0.00    -0.225 OA
ENDBRANCH  25  27
ENDBRANCH  24  25
ENDBRANCH  22  23
ENDBRANCH   1  22
TORSDOF 5
