REMARK  Name = Paroxetine
REMARK  4 active torsions:
REMARK  status: ('A' for Active; 'I' for Inactive)
REMARK    1  A    between atoms: C_5  and  C_14
REMARK    2  A    between atoms: C_6  and  C_7
REMARK    3  A    between atoms: C_14  and  O_15
REMARK    4  A    between atoms: O_15  and  C_16
REMARK                            x       y       z     vdW  Elec       q    Type
REMARK                         _______ _______ _______ _____ _____    ______ ____
ROOT
ATOM      1  C   UNL     1      44.034  80.086  38.728  0.00  0.00    +0.023 C 
ATOM      2  C   UNL     1      43.904  81.410  38.052  0.00  0.00    +0.089 C 
ATOM      3  N   UNL     1      44.884  82.376  38.423  0.00  0.00    -0.218 NA
ATOM      4  C   UNL     1      46.206  81.874  38.595  0.00  0.00    +0.093 C 
ATOM      5  C   UNL     1      46.303  80.620  39.393  0.00  0.00    +0.065 C 
ATOM      6  C   UNL     1      44.942  80.287  39.949  0.00  0.00    +0.029 C 
ENDROOT
BRANCH   6   7
ATOM      7  C   UNL     1      44.910  79.047  40.726  0.00  0.00    -0.022 A 
ATOM      8  C   UNL     1      44.937  77.844  40.048  0.00  0.00    -0.002 A 
ATOM      9  C   UNL     1      44.910  76.618  40.701  0.00  0.00    +0.029 A 
ATOM     10  C   UNL     1      44.855  76.585  42.076  0.00  0.00    +0.140 A 
ATOM     11  C   UNL     1      44.828  77.790  42.757  0.00  0.00    +0.029 A 
ATOM     12  C   UNL     1      44.856  78.998  42.090  0.00  0.00    -0.002 A 
ATOM     13  F   UNL     1      44.827  75.396  42.749  0.00  0.00    -0.204 F 
ENDBRANCH   6   7
BRANCH   5  14
ATOM     14  C   UNL     1      47.375  80.676  40.441  0.00  0.00    +0.207 C 
BRANCH  14  15
ATOM     15  O   UNL     1      47.075  81.757  41.304  0.00  0.00    -0.475 OA
BRANCH  15  16
ATOM     16  C   UNL     1      48.061  82.414  42.039  0.00  0.00    +0.142 A 
ATOM     17  C   UNL     1      49.356  81.965  42.019  0.00  0.00    +0.077 A 
ATOM     18  C   UNL     1      50.339  82.610  42.744  0.00  0.00    +0.179 A 
ATOM     19  C   UNL     1      49.942  83.715  43.477  0.00  0.00    +0.177 A 
ATOM     20  C   UNL     1      48.643  84.172  43.502  0.00  0.00    +0.043 A 
ATOM     21  C   UNL     1      47.681  83.511  42.770  0.00  0.00    +0.040 A 
ATOM     22  O   UNL     1      51.066  84.208  44.121  0.00  0.00    -0.435 OA
ATOM     23  C   UNL     1      52.201  83.626  43.508  0.00  0.00    +0.429 C 
ATOM     24  O   UNL     1      51.687  82.447  42.951  0.00  0.00    -0.435 OA
ENDBRANCH  15  16
ENDBRANCH  14  15
ENDBRANCH   5  14
TORSDOF 4
