REMARK  Name = Paromomycin
REMARK  9 active torsions:
REMARK  status: ('A' for Active; 'I' for Inactive)
REMARK    1  A    between atoms: C_4  and  O_20
REMARK    2  A    between atoms: C_5  and  O_8
REMARK    3  A    between atoms: O_8  and  C_9
REMARK    4  A    between atoms: C_13  and  C_15
REMARK    5  A    between atoms: O_20  and  C_21
REMARK    6  A    between atoms: C_23  and  O_28
REMARK    7  A    between atoms: C_24  and  C_26
REMARK    8  A    between atoms: O_28  and  C_29
REMARK    9  A    between atoms: C_33  and  C_35
REMARK                            x       y       z     vdW  Elec       q    Type
REMARK                         _______ _______ _______ _____ _____    ______ ____
ROOT
ATOM      1  C   UNL     1      42.465  74.297  42.115  0.00  0.00    +0.043 C 
ATOM      2  C   UNL     1      43.972  74.428  42.118  0.00  0.00    +0.126 C 
ATOM      3  C   UNL     1      44.334  75.863  42.453  0.00  0.00    +0.199 C 
ATOM      4  C   UNL     1      43.946  76.709  41.267  0.00  0.00    +0.178 C 
ATOM      5  C   UNL     1      42.464  76.594  41.058  0.00  0.00    +0.165 C 
ATOM      6  C   UNL     1      41.773  75.612  41.970  0.00  0.00    +0.123 C 
ATOM      7  N   UNL     1      41.426  76.128  43.257  0.00  0.00    -0.130 NA
ATOM      8  O   UNL     1      45.697  75.950  42.733  0.00  0.00    -0.219 OA
ATOM      9  N   UNL     1      44.620  73.468  42.958  0.00  0.00    -0.130 NA
ENDROOT
BRANCH   5  10
ATOM     10  O   UNL     1      42.241  76.276  39.714  0.00  0.00    -0.328 OA
BRANCH  10  11
ATOM     11  C   UNL     1      40.926  76.598  39.308  0.00  0.00    +0.256 C 
ATOM     12  C   UNL     1      40.977  77.422  38.062  0.00  0.00    +0.181 C 
ATOM     13  C   UNL     1      40.164  76.878  36.927  0.00  0.00    +0.207 C 
ATOM     14  C   UNL     1      38.895  76.204  37.359  0.00  0.00    +0.213 C 
ATOM     15  C   UNL     1      39.007  75.448  38.643  0.00  0.00    +0.183 C 
ATOM     16  O   UNL     1      40.264  75.409  39.181  0.00  0.00    -0.326 OA
ATOM     17  O   UNL     1      37.836  77.120  37.482  0.00  0.00    -0.218 OA
ATOM     18  O   UNL     1      40.943  76.041  36.131  0.00  0.00    -0.219 OA
ATOM     19  N   UNL     1      42.342  77.560  37.588  0.00  0.00    -0.125 NA
BRANCH  15  20
ATOM     20  C   UNL     1      37.949  75.882  39.650  0.00  0.00    +0.214 C 
ATOM     21  O   UNL     1      37.924  75.104  40.787  0.00  0.00    -0.218 OA
ENDBRANCH  15  20
ENDBRANCH  10  11
ENDBRANCH   5  10
BRANCH   4  22
ATOM     22  O   UNL     1      44.274  78.051  41.462  0.00  0.00    -0.326 OA
BRANCH  22  23
ATOM     23  C   UNL     1      45.029  78.574  40.444  0.00  0.00    +0.269 C 
ATOM     24  C   UNL     1      46.495  78.671  40.794  0.00  0.00    +0.237 C 
ATOM     25  C   UNL     1      46.975  79.944  40.118  0.00  0.00    +0.183 C 
ATOM     26  C   UNL     1      45.750  80.413  39.411  0.00  0.00    +0.180 C 
ATOM     27  O   UNL     1      44.638  79.808  39.980  0.00  0.00    -0.326 OA
ATOM     28  O   UNL     1      46.681  78.740  42.181  0.00  0.00    -0.215 OA
BRANCH  26  29
ATOM     29  C   UNL     1      45.639  81.923  39.430  0.00  0.00    +0.214 C 
ATOM     30  O   UNL     1      45.160  82.376  38.191  0.00  0.00    -0.218 OA
ENDBRANCH  26  29
BRANCH  25  31
ATOM     31  O   UNL     1      47.355  80.894  41.054  0.00  0.00    -0.326 OA
BRANCH  31  32
ATOM     32  C   UNL     1      48.713  81.197  40.990  0.00  0.00    +0.256 C 
ATOM     33  C   UNL     1      48.879  82.657  40.769  0.00  0.00    +0.181 C 
ATOM     34  C   UNL     1      49.912  83.280  41.687  0.00  0.00    +0.207 C 
ATOM     35  C   UNL     1      49.477  82.881  43.081  0.00  0.00    +0.212 C 
ATOM     36  C   UNL     1      49.579  81.399  43.168  0.00  0.00    +0.170 C 
ATOM     37  O   UNL     1      49.312  80.666  42.079  0.00  0.00    -0.328 OA
ATOM     38  O   UNL     1      50.348  83.483  43.983  0.00  0.00    -0.218 OA
ATOM     39  O   UNL     1      49.970  84.636  41.489  0.00  0.00    -0.219 OA
ATOM     40  N   UNL     1      49.277  82.972  39.410  0.00  0.00    -0.125 NA
BRANCH  36  41
ATOM     41  C   UNL     1      50.927  81.070  43.816  0.00  0.00    +0.142 C 
ATOM     42  N   UNL     1      50.894  79.853  44.575  0.00  0.00    -0.129 NA
ENDBRANCH  36  41
ENDBRANCH  31  32
ENDBRANCH  25  31
ENDBRANCH  22  23
ENDBRANCH   4  22
TORSDOF 9
