REMARK  Name = Pazopanib_HCl
REMARK  3 active torsions:
REMARK  status: ('A' for Active; 'I' for Inactive)
REMARK    1  A    between atoms: C_3  and  S_28
REMARK    2  A    between atoms: C_5  and  N_8
REMARK    3  A    between atoms: N_15  and  C_17
REMARK                            x       y       z     vdW  Elec       q    Type
REMARK                         _______ _______ _______ _____ _____    ______ ____
ROOT
ATOM      1  N   UNL     1      46.720  80.846  40.954  0.00  0.00    -0.178 NA
ATOM      2  C   UNL     1      45.772  80.834  39.904  0.00  0.00    +0.242 A 
ATOM      3  N   UNL     1      45.844  81.655  38.840  0.00  0.00    -0.211 NA
ATOM      4  C   UNL     1      44.965  81.647  37.850  0.00  0.00    +0.105 A 
ATOM      5  C   UNL     1      43.910  80.761  37.880  0.00  0.00    +0.055 A 
ATOM      6  C   UNL     1      43.789  79.880  38.972  0.00  0.00    +0.140 A 
ATOM      7  N   UNL     1      44.731  79.989  39.897  0.00  0.00    -0.197 NA
ATOM      8  N   UNL     1      42.694  78.980  39.019  0.00  0.00    -0.270 N 
ATOM      9  C   UNL     1      41.589  79.140  38.085  0.00  0.00    +0.119 C 
ENDROOT
BRANCH   8  10
ATOM     10  C   UNL     1      42.666  77.880  39.914  0.00  0.00    +0.054 A 
ATOM     11  C   UNL     1      43.574  77.636  40.904  0.00  0.00    +0.036 A 
ATOM     12  C   UNL     1      43.478  76.505  41.706  0.00  0.00    +0.103 A 
ATOM     13  N   UNL     1      44.244  76.051  42.737  0.00  0.00    -0.170 NA
ATOM     14  N   UNL     1      43.754  74.912  43.198  0.00  0.00    -0.253 N 
ATOM     15  C   UNL     1      42.656  74.566  42.502  0.00  0.00    +0.057 A 
ATOM     16  C   UNL     1      42.480  75.568  41.562  0.00  0.00    +0.033 A 
ATOM     17  C   UNL     1      41.551  75.794  40.567  0.00  0.00    +0.004 A 
ATOM     18  C   UNL     1      41.653  76.915  39.778  0.00  0.00    +0.015 A 
ATOM     19  C   UNL     1      41.805  73.357  42.701  0.00  0.00    +0.052 C 
ATOM     20  C   UNL     1      44.300  74.133  44.289  0.00  0.00    +0.153 C 
ENDBRANCH   8  10
BRANCH   1  25
ATOM     21  C   UNL     1      51.546  83.844  41.585  0.00  0.00    +0.032 C 
ATOM     22  C   UNL     1      50.288  83.082  41.382  0.00  0.00    -0.003 A 
ATOM     23  C   UNL     1      49.736  82.379  42.429  0.00  0.00    +0.122 A 
ATOM     24  C   UNL     1      48.567  81.659  42.274  0.00  0.00    +0.036 A 
ATOM     25  C   UNL     1      47.889  81.608  41.050  0.00  0.00    +0.075 A 
ATOM     26  C   UNL     1      48.444  82.311  40.014  0.00  0.00    +0.016 A 
ATOM     27  C   UNL     1      49.631  83.040  40.178  0.00  0.00    -0.002 A 
BRANCH  23  28
ATOM     28  S   UNL     1      50.568  82.426  43.978  0.00  0.00    +0.093 S 
ATOM     29  O   UNL     1      50.748  83.805  44.497  0.00  0.00    -0.150 OA
ATOM     30  O   UNL     1      51.914  81.752  43.906  0.00  0.00    -0.150 OA
ATOM     31  N   UNL     1      49.641  81.465  45.110  0.00  0.00    +0.039 NA
ENDBRANCH  23  28
ENDBRANCH   1  25
TORSDOF 3
REMARK  Name = Pazopanib_HCl
REMARK  3 active torsions:
REMARK  status: ('A' for Active; 'I' for Inactive)
REMARK    1  A    between atoms: C_3  and  S_28
REMARK    2  A    between atoms: C_5  and  N_8
REMARK    3  A    between atoms: N_15  and  C_17
REMARK                            x       y       z     vdW  Elec       q    Type
REMARK                         _______ _______ _______ _____ _____    ______ ____
ROOT
ATOM      1 CL   UNL     1      45.232  78.667  41.215  0.00  0.00    +0.000 Cl
ENDROOT
TORSDOF 0
