REMARK  Name = Pefloxacin
REMARK  3 active torsions:
REMARK  status: ('A' for Active; 'I' for Inactive)
REMARK    1  A    between atoms: C_2  and  N_3
REMARK    2  A    between atoms: C_5  and  C_22
REMARK    3  A    between atoms: C_11  and  N_14
REMARK                            x       y       z     vdW  Elec       q    Type
REMARK                         _______ _______ _______ _____ _____    ______ ____
ROOT
ATOM      1  N   UNL     1      45.252  79.127  40.786  0.00  0.00    -0.326 N 
ATOM      2  C   UNL     1      46.154  80.121  40.706  0.00  0.00    +0.086 A 
ATOM      3  C   UNL     1      46.131  81.090  39.733  0.00  0.00    +0.136 A 
ATOM      4  C   UNL     1      45.108  81.001  38.805  0.00  0.00    +0.205 A 
ATOM      5  O   UNL     1      45.045  81.867  37.893  0.00  0.00    -0.286 OA
ATOM      6  C   UNL     1      44.187  79.993  38.881  0.00  0.00    +0.057 A 
ATOM      7  C   UNL     1      43.173  79.886  37.984  0.00  0.00    +0.036 A 
ATOM      8  C   UNL     1      42.243  78.848  38.085  0.00  0.00    +0.154 A 
ATOM      9  C   UNL     1      42.299  77.899  39.070  0.00  0.00    +0.077 A 
ATOM     10  C   UNL     1      43.350  78.017  39.993  0.00  0.00    +0.034 A 
ATOM     11  C   UNL     1      44.254  79.034  39.888  0.00  0.00    +0.064 A 
ATOM     12  F   UNL     1      41.277  78.837  37.158  0.00  0.00    -0.203 F 
ENDROOT
BRANCH   9  13
ATOM     13  N   UNL     1      41.401  76.825  39.216  0.00  0.00    -0.303 N 
ATOM     14  C   UNL     1      39.972  77.037  38.972  0.00  0.00    +0.108 C 
ATOM     15  C   UNL     1      39.242  75.744  38.776  0.00  0.00    +0.094 C 
ATOM     16  N   UNL     1      39.978  74.726  38.118  0.00  0.00    -0.269 NA
ATOM     17  C   UNL     1      41.371  74.624  38.389  0.00  0.00    +0.094 C 
ATOM     18  C   UNL     1      41.716  75.472  39.602  0.00  0.00    +0.108 C 
ATOM     19  C   UNL     1      39.300  73.496  37.925  0.00  0.00    +0.090 C 
ENDBRANCH   9  13
BRANCH   3  20
ATOM     20  C   UNL     1      47.129  82.145  39.687  0.00  0.00    +0.392 C 
ATOM     21  O   UNL     1      47.936  82.278  40.619  0.00  0.00    -0.240 OA
ATOM     22  O   UNL     1      47.156  82.987  38.595  0.00  0.00    -0.240 OA
ENDBRANCH   3  20
BRANCH   1  24
ATOM     23  C   UNL     1      46.661  77.357  41.717  0.00  0.00    +0.026 C 
ATOM     24  C   UNL     1      45.386  78.162  41.853  0.00  0.00    +0.106 C 
ENDBRANCH   1  24
TORSDOF 3
