REMARK  Name = Pegaptanib
REMARK  24 active torsions:
REMARK  status: ('A' for Active; 'I' for Inactive)
REMARK    1  A    between atoms: O_2  and  C_3
REMARK    2  A    between atoms: C_3  and  C_4
REMARK    3  A    between atoms: C_4  and  O_5
REMARK    4  A    between atoms: O_5  and  C_6
REMARK    5  A    between atoms: N_8  and  C_9
REMARK    6  A    between atoms: C_9  and  C_10
REMARK    7  A    between atoms: C_10  and  C_11
REMARK    8  A    between atoms: C_11  and  C_12
REMARK    9  A    between atoms: C_12  and  C_13
REMARK   10  A    between atoms: C_13  and  C_14
REMARK   11  A    between atoms: C_13  and  N_29
REMARK   12  A    between atoms: N_16  and  C_17
REMARK   13  A    between atoms: C_17  and  C_18
REMARK   14  A    between atoms: C_18  and  C_19
REMARK   15  A    between atoms: C_19  and  C_20
REMARK   16  A    between atoms: C_20  and  C_21
REMARK   17  A    between atoms: C_21  and  C_22
REMARK   18  A    between atoms: C_22  and  C_23
REMARK   19  A    between atoms: C_23  and  O_24
REMARK   20  A    between atoms: O_24  and  P_25
REMARK   21  A    between atoms: C_30  and  O_32
REMARK   22  A    between atoms: O_32  and  C_33
REMARK   23  A    between atoms: C_33  and  C_34
REMARK   24  A    between atoms: C_34  and  O_35
REMARK                            x       y       z     vdW  Elec       q    Type
REMARK                         _______ _______ _______ _____ _____    ______ ____
ROOT
ATOM      1  C   UNL     1      42.215  77.881  39.383  0.00  0.00    +0.176 C 
ENDROOT
BRANCH   1   2
ATOM      2  N   UNL     1      41.360  76.944  38.575  0.00  0.00    -0.161 NA
ATOM      3  C   UNL     1      40.295  77.431  37.779  0.00  0.00    +0.422 C 
ATOM      4  O   UNL     1      39.733  78.494  38.167  0.00  0.00    -0.225 OA
BRANCH   3   5
ATOM      5  O   UNL     1      39.864  76.804  36.629  0.00  0.00    -0.431 OA
BRANCH   5   6
ATOM      6  C   UNL     1      38.523  76.834  36.196  0.00  0.00    +0.242 C 
BRANCH   6   7
ATOM      7  C   UNL     1      38.332  76.254  34.811  0.00  0.00    +0.190 C 
BRANCH   7   8
ATOM      8  O   UNL     1      37.492  77.148  34.111  0.00  0.00    -0.347 OA
ATOM      9  C   UNL     1      37.227  76.660  32.833  0.00  0.00    +0.174 C 
ENDBRANCH   7   8
ENDBRANCH   6   7
ENDBRANCH   5   6
ENDBRANCH   3   5
ENDBRANCH   1   2
BRANCH   1  10
ATOM     10  C   UNL     1      42.907  78.776  38.458  0.00  0.00    +0.261 C 
ATOM     11  O   UNL     1      43.385  78.456  37.339  0.00  0.00    -0.271 OA
ATOM     12  N   UNL     1      43.081  80.172  38.792  0.00  0.00    -0.204 NA
BRANCH  12  13
ATOM     13  C   UNL     1      44.257  80.687  39.445  0.00  0.00    +0.115 C 
BRANCH  13  14
ATOM     14  C   UNL     1      45.165  81.314  38.431  0.00  0.00    +0.023 C 
BRANCH  14  15
ATOM     15  C   UNL     1      45.946  82.424  39.035  0.00  0.00    +0.002 C 
BRANCH  15  16
ATOM     16  C   UNL     1      47.200  81.937  39.742  0.00  0.00    +0.000 C 
BRANCH  16  17
ATOM     17  C   UNL     1      47.922  83.085  40.351  0.00  0.00    +0.003 C 
BRANCH  17  18
ATOM     18  C   UNL     1      48.226  82.842  41.807  0.00  0.00    +0.033 C 
BRANCH  18  19
ATOM     19  C   UNL     1      49.630  83.326  42.091  0.00  0.00    +0.151 C 
BRANCH  19  20
ATOM     20  O   UNL     1      49.880  83.057  43.440  0.00  0.00    -0.293 OA
BRANCH  20  21
ATOM     21  P   UNL     1      51.402  83.543  43.929  0.00  0.00    +0.370 P 
ATOM     22  O   UNL     1      51.581  85.041  43.863  0.00  0.00    -0.255 OA
ATOM     23  C   UNL     1      51.727  82.911  45.592  0.00  0.00    +0.131 C 
ATOM     24  O   UNL     1      52.562  82.855  42.881  0.00  0.00    -0.140 OA
ENDBRANCH  20  21
ENDBRANCH  19  20
ENDBRANCH  18  19
ENDBRANCH  17  18
ENDBRANCH  16  17
ENDBRANCH  15  16
ENDBRANCH  14  15
ENDBRANCH  13  14
ENDBRANCH  12  13
ENDBRANCH   1  10
BRANCH   1  25
ATOM     25  C   UNL     1      43.010  77.063  40.330  0.00  0.00    +0.031 C 
BRANCH  25  26
ATOM     26  C   UNL     1      43.797  77.781  41.337  0.00  0.00    +0.004 C 
BRANCH  26  27
ATOM     27  C   UNL     1      45.104  77.229  41.707  0.00  0.00    +0.024 C 
BRANCH  27  28
ATOM     28  C   UNL     1      45.033  76.129  42.735  0.00  0.00    +0.119 C 
BRANCH  28  31
ATOM     29  C   UNL     1      46.600  74.485  43.797  0.00  0.00    +0.421 C 
ATOM     30  O   UNL     1      46.136  74.466  44.945  0.00  0.00    -0.225 OA
ATOM     31  N   UNL     1      46.330  75.534  42.909  0.00  0.00    -0.169 NA
BRANCH  29  32
ATOM     32  O   UNL     1      47.409  73.395  43.448  0.00  0.00    -0.431 OA
BRANCH  32  33
ATOM     33  C   UNL     1      48.683  73.209  44.045  0.00  0.00    +0.242 C 
BRANCH  33  34
ATOM     34  C   UNL     1      49.188  71.865  43.564  0.00  0.00    +0.190 C 
BRANCH  34  36
ATOM     35  C   UNL     1      50.692  70.223  43.648  0.00  0.00    +0.174 C 
ATOM     36  O   UNL     1      50.420  71.527  44.123  0.00  0.00    -0.347 OA
ENDBRANCH  34  36
ENDBRANCH  33  34
ENDBRANCH  32  33
ENDBRANCH  29  32
ENDBRANCH  28  31
ENDBRANCH  27  28
ENDBRANCH  26  27
ENDBRANCH  25  26
ENDBRANCH   1  25
TORSDOF 24
