REMARK  Name = Pegfilgrastim
REMARK  19 active torsions:
REMARK  status: ('A' for Active; 'I' for Inactive)
REMARK    1  A    between atoms: C_2  and  CA_3
REMARK    2  A    between atoms: C_2  and  O_8
REMARK    3  A    between atoms: CA_3  and  C_4
REMARK    4  A    between atoms: O_8  and  C_9
REMARK    5  A    between atoms: C_10  and  N_47
REMARK    6  A    between atoms: C_13  and  C_15
REMARK    7  A    between atoms: C_15  and  O_16
REMARK    8  A    between atoms: O_16  and  C_17
REMARK    9  A    between atoms: C_17  and  C_42
REMARK   10  A    between atoms: C_20  and  N_29
REMARK   11  A    between atoms: C_21  and  C_23
REMARK   12  A    between atoms: C_23  and  C_24
REMARK   13  A    between atoms: C_24  and  C_25
REMARK   14  A    between atoms: C_30  and  C_32
REMARK   15  A    between atoms: C_32  and  N_33
REMARK   16  A    between atoms: C_34  and  O_36
REMARK   17  A    between atoms: O_36  and  C_37
REMARK   18  A    between atoms: C_37  and  C_38
REMARK   19  A    between atoms: C_38  and  O_39
REMARK                            x       y       z     vdW  Elec       q    Type
REMARK                         _______ _______ _______ _____ _____    ______ ____
ROOT
ATOM      1  C   UNL     1      44.873  79.147  39.742  0.00  0.00    +0.286 C 
ATOM      2  C   UNL     1      44.380  79.022  38.358  0.00  0.00    +0.103 C 
ATOM      3  C   UNL     1      42.941  78.672  38.213  0.00  0.00    +0.180 C 
ATOM      4  C   UNL     1      42.331  78.337  39.529  0.00  0.00    +0.155 C 
ATOM      5  C   UNL     1      43.216  77.715  40.519  0.00  0.00    +0.173 C 
ATOM      6  O   UNL     1      44.574  77.888  40.388  0.00  0.00    -0.324 OA
ATOM      7  O   UNL     1      42.192  79.753  37.677  0.00  0.00    -0.221 OA
ENDROOT
BRANCH   1   8
ATOM      8  C   UNL     1      46.379  78.976  39.702  0.00  0.00    +0.415 C 
ATOM      9  O   UNL     1      46.872  78.022  40.319  0.00  0.00    -0.240 OA
ATOM     10  O   UNL     1      47.206  79.834  39.012  0.00  0.00    -0.240 OA
ENDBRANCH   1   8
BRANCH   4  11
ATOM     11  N   UNL     1      41.130  77.496  39.366  0.00  0.00    -0.200 NA
ATOM     12  C   UNL     1      40.430  77.552  38.148  0.00  0.00    +0.264 C 
ATOM     13  O   UNL     1      40.237  78.692  37.581  0.00  0.00    -0.271 OA
BRANCH  12  14
ATOM     14  C   UNL     1      39.879  76.396  37.438  0.00  0.00    +0.205 C 
BRANCH  14  15
ATOM     15  N   UNL     1      39.189  76.655  36.222  0.00  0.00    -0.159 NA
ATOM     16  C   UNL     1      38.636  75.574  35.493  0.00  0.00    +0.422 C 
ATOM     17  O   UNL     1      38.963  74.397  35.826  0.00  0.00    -0.225 OA
BRANCH  16  18
ATOM     18  O   UNL     1      37.760  75.753  34.441  0.00  0.00    -0.431 OA
BRANCH  18  19
ATOM     19  C   UNL     1      38.213  76.567  33.341  0.00  0.00    +0.242 C 
BRANCH  19  20
ATOM     20  C   UNL     1      37.214  76.533  32.232  0.00  0.00    +0.190 C 
BRANCH  20  21
ATOM     21  O   UNL     1      37.773  76.083  31.075  0.00  0.00    -0.347 OA
ATOM     22  C   UNL     1      36.837  75.710  30.145  0.00  0.00    +0.174 C 
ENDBRANCH  20  21
ENDBRANCH  19  20
ENDBRANCH  18  19
ENDBRANCH  16  18
ENDBRANCH  14  15
ENDBRANCH  12  14
ENDBRANCH   4  11
BRANCH   5  23
ATOM     23  C   UNL     1      42.997  76.267  40.865  0.00  0.00    +0.214 C 
ATOM     24  O   UNL     1      43.154  75.409  39.806  0.00  0.00    -0.218 OA
BRANCH  23  25
ATOM     25  C   UNL     1      43.552  75.823  42.176  0.00  0.00    +0.217 C 
ATOM     26  O   UNL     1      43.323  76.793  43.184  0.00  0.00    -0.217 OA
BRANCH  25  27
ATOM     27  C   UNL     1      43.036  74.541  42.730  0.00  0.00    +0.217 C 
ATOM     28  O   UNL     1      43.608  74.168  43.944  0.00  0.00    -0.217 OA
ENDBRANCH  25  27
ENDBRANCH  23  25
ENDBRANCH   5  23
BRANCH   1  29
ATOM     29  O   UNL     1      44.409  80.064  40.570  0.00  0.00    -0.323 OA
BRANCH  29  30
ATOM     30  C   UNL     1      44.921  80.516  41.691  0.00  0.00    +0.177 C 
BRANCH  30  35
ATOM     31  C   UNL     1      48.323  81.513  42.462  0.00  0.00    +0.259 C 
ATOM     32  C   UNL     1      48.462  82.686  41.590  0.00  0.00    +0.184 C 
ATOM     33  C   UNL     1      47.641  82.711  40.338  0.00  0.00    +0.209 C 
ATOM     34  C   UNL     1      46.588  81.641  40.282  0.00  0.00    +0.213 C 
ATOM     35  C   UNL     1      46.125  81.410  41.718  0.00  0.00    +0.180 C 
ATOM     36  O   UNL     1      47.155  80.798  42.358  0.00  0.00    -0.326 OA
ATOM     37  O   UNL     1      45.545  82.007  39.449  0.00  0.00    -0.218 OA
ATOM     38  O   UNL     1      48.420  82.729  39.169  0.00  0.00    -0.218 OA
BRANCH  32  39
ATOM     39  N   UNL     1      48.296  83.931  42.356  0.00  0.00    -0.199 NA
ATOM     40  C   UNL     1      49.361  84.766  42.741  0.00  0.00    +0.242 C 
ATOM     41  O   UNL     1      50.337  84.908  41.965  0.00  0.00    -0.273 OA
ATOM     42  C   UNL     1      49.394  85.503  44.038  0.00  0.00    +0.096 C 
ENDBRANCH  32  39
BRANCH  31  43
ATOM     43  O   UNL     1      49.363  80.599  42.322  0.00  0.00    -0.330 OA
BRANCH  43  45
ATOM     44  C   UNL     1      50.589  78.870  43.448  0.00  0.00    +0.034 C 
ATOM     45  C   UNL     1      49.919  80.243  43.539  0.00  0.00    +0.146 C 
BRANCH  45  46
ATOM     46  CA  UNL     1      50.922  81.291  43.944  0.00  0.00    +0.221 C 
ATOM     47  N   UNL     1      51.933  81.420  42.926  0.00  0.00    -0.118 NA
BRANCH  46  48
ATOM     48  C   UNL     1      51.565  80.959  45.227  0.00  0.00    +0.384 C 
ATOM     49  O   UNL     1      50.878  80.773  46.255  0.00  0.00    -0.244 OA
ATOM     50  OXT UNL     1      52.937  80.850  45.307  0.00  0.00    -0.244 OA
ENDBRANCH  46  48
ENDBRANCH  45  46
ENDBRANCH  43  45
ENDBRANCH  31  43
ENDBRANCH  30  35
ENDBRANCH  29  30
ENDBRANCH   1  29
TORSDOF 19
