REMARK  Name = Pegunigalsidase_alfa
REMARK  24 active torsions:
REMARK  status: ('A' for Active; 'I' for Inactive)
REMARK    1  A    between atoms: C_1  and  C_2
REMARK    2  A    between atoms: C_1  and  C_34
REMARK    3  A    between atoms: C_2  and  C_3
REMARK    4  A    between atoms: C_3  and  N_4
REMARK    5  A    between atoms: C_5  and  C_7
REMARK    6  A    between atoms: C_7  and  C_8
REMARK    7  A    between atoms: C_8  and  C_9
REMARK    8  A    between atoms: N_11  and  C_12
REMARK    9  A    between atoms: C_12  and  C_13
REMARK   10  A    between atoms: C_13  and  O_14
REMARK   11  A    between atoms: O_14  and  C_15
REMARK   12  A    between atoms: C_15  and  C_16
REMARK   13  A    between atoms: C_16  and  N_17
REMARK   14  A    between atoms: C_18  and  C_20
REMARK   15  A    between atoms: C_20  and  C_21
REMARK   16  A    between atoms: C_21  and  C_22
REMARK   17  A    between atoms: N_24  and  C_25
REMARK   18  A    between atoms: C_25  and  C_26
REMARK   19  A    between atoms: C_26  and  C_27
REMARK   20  A    between atoms: C_27  and  C_28
REMARK   21  A    between atoms: C_28  and  C_29
REMARK   22  A    between atoms: C_29  and  C_30
REMARK   23  A    between atoms: C_34  and  C_35
REMARK   24  A    between atoms: C_35  and  C_36
REMARK                            x       y       z     vdW  Elec       q    Type
REMARK                         _______ _______ _______ _____ _____    ______ ____
ROOT
ATOM      1  O   UNK     1      40.878  76.766  39.116  0.00  0.00    -0.350 OA
ENDROOT
BRANCH   1   2
ATOM      2  C   UNK     1      39.899  76.721  38.193  0.00  0.00    +0.166 C 
BRANCH   2   3
ATOM      3  C   UNK     1      39.599  75.400  37.546  0.00  0.00    +0.147 C 
BRANCH   3   4
ATOM      4  N   UNK     1      38.888  75.618  36.293  0.00  0.00    -0.203 NA
ATOM      5  C   UNK     1      38.584  74.482  35.504  0.00  0.00    +0.242 C 
ATOM      6  O   UNK     1      39.067  73.337  35.774  0.00  0.00    -0.273 OA
BRANCH   5   7
ATOM      7  C   UNK     1      37.697  74.612  34.351  0.00  0.00    +0.096 C 
BRANCH   7   8
ATOM      8  C   UNK     1      37.576  73.406  33.507  0.00  0.00    +0.096 C 
BRANCH   8   9
ATOM      9  C   UNK     1      36.742  73.687  32.318  0.00  0.00    +0.242 C 
ATOM     10  O   UNK     1      36.172  74.778  32.117  0.00  0.00    -0.273 OA
ATOM     11  N   UNK     1      36.607  72.614  31.397  0.00  0.00    -0.205 NA
BRANCH  11  12
ATOM     12  C   UNK     1      35.546  72.537  30.456  0.00  0.00    +0.115 C 
BRANCH  12  13
ATOM     13  C   UNK     1      36.026  71.498  29.411  0.00  0.00    +0.023 C 
BRANCH  13  14
ATOM     14  C   UNK     1      37.106  72.186  28.610  0.00  0.00    +0.004 C 
BRANCH  14  15
ATOM     15  C   UNK     1      37.552  71.310  27.471  0.00  0.00    +0.031 C 
BRANCH  15  16
ATOM     16  C   UNK     1      38.692  71.966  26.717  0.00  0.00    +0.194 C 
ATOM     17  N   UNK     1      39.756  70.990  26.582  0.00  0.00    -0.121 NA
BRANCH  16  18
ATOM     18  C   UNK     1      38.254  72.396  25.355  0.00  0.00    +0.382 C 
ATOM     19  O   UNK     1      37.604  73.444  25.202  0.00  0.00    -0.244 OA
ATOM     20  O   UNK     1      38.604  71.585  24.270  0.00  0.00    -0.244 OA
ENDBRANCH  16  18
ENDBRANCH  15  16
ENDBRANCH  14  15
ENDBRANCH  13  14
ENDBRANCH  12  13
ENDBRANCH  11  12
ENDBRANCH   8   9
ENDBRANCH   7   8
ENDBRANCH   5   7
ENDBRANCH   3   4
ENDBRANCH   2   3
ENDBRANCH   1   2
BRANCH   1  21
ATOM     21  C   UNK     1      42.058  76.139  38.904  0.00  0.00    +0.166 C 
BRANCH  21  22
ATOM     22  C   UNK     1      43.169  76.711  39.705  0.00  0.00    +0.147 C 
BRANCH  22  25
ATOM     23  C   UNK     1      43.976  78.883  40.629  0.00  0.00    +0.242 C 
ATOM     24  O   UNK     1      44.412  78.365  41.711  0.00  0.00    -0.273 OA
ATOM     25  N   UNK     1      42.977  78.139  39.946  0.00  0.00    -0.203 NA
BRANCH  23  26
ATOM     26  C   UNK     1      44.472  80.174  40.115  0.00  0.00    +0.096 C 
BRANCH  26  27
ATOM     27  C   UNK     1      45.748  80.658  40.681  0.00  0.00    +0.096 C 
BRANCH  27  29
ATOM     28  N   UNK     1      47.671  82.240  40.371  0.00  0.00    -0.205 NA
ATOM     29  C   UNK     1      46.356  81.836  40.036  0.00  0.00    +0.242 C 
ATOM     30  O   UNK     1      45.713  82.482  39.194  0.00  0.00    -0.273 OA
BRANCH  28  31
ATOM     31  C   UNK     1      48.492  82.893  39.394  0.00  0.00    +0.115 C 
BRANCH  31  32
ATOM     32  C   UNK     1      49.879  83.189  39.963  0.00  0.00    +0.023 C 
BRANCH  32  33
ATOM     33  C   UNK     1      49.816  83.892  41.276  0.00  0.00    +0.004 C 
BRANCH  33  34
ATOM     34  C   UNK     1      50.459  83.184  42.416  0.00  0.00    +0.031 C 
BRANCH  34  35
ATOM     35  C   UNK     1      50.436  83.937  43.723  0.00  0.00    +0.194 C 
ATOM     36  N   UNK     1      51.546  84.809  43.877  0.00  0.00    -0.121 NA
BRANCH  35  37
ATOM     37  C   UNK     1      50.346  82.901  44.797  0.00  0.00    +0.382 C 
ATOM     38  O   UNK     1      50.538  83.264  45.967  0.00  0.00    -0.244 OA
ATOM     39  O   UNK     1      50.059  81.598  44.497  0.00  0.00    -0.244 OA
ENDBRANCH  35  37
ENDBRANCH  34  35
ENDBRANCH  33  34
ENDBRANCH  32  33
ENDBRANCH  31  32
ENDBRANCH  28  31
ENDBRANCH  27  29
ENDBRANCH  26  27
ENDBRANCH  23  26
ENDBRANCH  22  25
ENDBRANCH  21  22
ENDBRANCH   1  21
TORSDOF 24
