REMARK  Name = Pegvaliase
REMARK  15 active torsions:
REMARK  status: ('A' for Active; 'I' for Inactive)
REMARK    1  A    between atoms: O_2  and  C_3
REMARK    2  A    between atoms: C_3  and  C_4
REMARK    3  A    between atoms: C_4  and  O_5
REMARK    4  A    between atoms: O_5  and  C_6
REMARK    5  A    between atoms: C_6  and  C_7
REMARK    6  A    between atoms: C_7  and  C_8
REMARK    7  A    between atoms: C_8  and  C_9
REMARK    8  A    between atoms: C_9  and  C_10
REMARK    9  A    between atoms: C_10  and  C_11
REMARK   10  A    between atoms: N_13  and  C_14
REMARK   11  A    between atoms: C_14  and  C_15
REMARK   12  A    between atoms: C_15  and  C_16
REMARK   13  A    between atoms: C_16  and  C_17
REMARK   14  A    between atoms: C_17  and  C_18
REMARK   15  A    between atoms: C_18  and  C_19
REMARK                            x       y       z     vdW  Elec       q    Type
REMARK                         _______ _______ _______ _____ _____    ______ ____
ROOT
ATOM      1  C   UNK     1      51.041  81.842  43.614  0.00  0.00    +0.241 C 
ATOM      2  O   UNK     1      52.097  82.091  42.975  0.00  0.00    -0.273 OA
ATOM      3  N   UNK     1      49.837  81.772  42.863  0.00  0.00    -0.205 NA
ENDROOT
BRANCH   1   4
ATOM      4  C   UNK     1      51.030  81.629  45.079  0.00  0.00    +0.087 C 
BRANCH   4   5
ATOM      5  C   UNK     1      51.084  80.171  45.480  0.00  0.00    +0.010 C 
BRANCH   5   6
ATOM      6  C   UNK     1      52.023  79.882  46.591  0.00  0.00    +0.003 C 
BRANCH   6   7
ATOM      7  C   UNK     1      51.304  79.942  47.919  0.00  0.00    +0.032 C 
BRANCH   7   8
ATOM      8  C   UNK     1      52.281  79.702  49.027  0.00  0.00    +0.142 C 
BRANCH   8   9
ATOM      9  O   UNK     1      51.712  79.702  50.269  0.00  0.00    -0.351 OA
BRANCH   9  10
ATOM     10  C   UNK     1      51.374  78.465  50.741  0.00  0.00    +0.174 C 
BRANCH  10  11
ATOM     11  C   UNK     1      50.873  78.584  52.160  0.00  0.00    +0.174 C 
BRANCH  11  13
ATOM     12  C   UNK     1      50.125  77.472  54.068  0.00  0.00    +0.174 C 
ATOM     13  O   UNK     1      50.510  77.415  52.760  0.00  0.00    -0.348 OA
ENDBRANCH  11  13
ENDBRANCH  10  11
ENDBRANCH   9  10
ENDBRANCH   8   9
ENDBRANCH   7   8
ENDBRANCH   6   7
ENDBRANCH   5   6
ENDBRANCH   4   5
ENDBRANCH   1   4
BRANCH   3  14
ATOM     14  C   UNK     1      49.229  82.927  42.247  0.00  0.00    +0.115 C 
BRANCH  14  15
ATOM     15  C   UNK     1      47.752  82.657  41.924  0.00  0.00    +0.023 C 
BRANCH  15  16
ATOM     16  C   UNK     1      47.626  81.419  41.145  0.00  0.00    +0.004 C 
BRANCH  16  17
ATOM     17  C   UNK     1      46.253  80.956  40.873  0.00  0.00    +0.031 C 
BRANCH  17  18
ATOM     18  C   UNK     1      45.596  81.391  39.643  0.00  0.00    +0.194 C 
ATOM     19  N   UNK     1      46.564  82.356  39.014  0.00  0.00    -0.121 NA
BRANCH  18  20
ATOM     20  C   UNK     1      45.255  80.368  38.680  0.00  0.00    +0.382 C 
ATOM     21  O   UNK     1      45.828  80.228  37.573  0.00  0.00    -0.244 OA
ATOM     22  O   UNK     1      44.226  79.450  38.956  0.00  0.00    -0.244 OA
ENDBRANCH  18  20
ENDBRANCH  17  18
ENDBRANCH  16  17
ENDBRANCH  15  16
ENDBRANCH  14  15
ENDBRANCH   3  14
TORSDOF 15
