REMARK  Name = Pemafibrate
REMARK  12 active torsions:
REMARK  status: ('A' for Active; 'I' for Inactive)
REMARK    1  A    between atoms: C_2  and  C_3
REMARK    2  A    between atoms: C_3  and  C_4
REMARK    3  A    between atoms: C_3  and  O_7
REMARK    4  A    between atoms: O_7  and  C_8
REMARK    5  A    between atoms: C_12  and  C_14
REMARK    6  A    between atoms: C_14  and  N_15
REMARK    7  A    between atoms: N_15  and  C_16
REMARK    8  A    between atoms: C_16  and  C_17
REMARK    9  A    between atoms: C_17  and  C_18
REMARK   10  A    between atoms: C_18  and  O_19
REMARK   11  A    between atoms: O_19  and  C_20
REMARK   12  A    between atoms: C_23  and  O_26
REMARK                            x       y       z     vdW  Elec       q    Type
REMARK                         _______ _______ _______ _____ _____    ______ ____
ROOT
ATOM      1  N   UNL     1      46.343  79.943  41.247  0.00  0.00    -0.259 N 
ATOM      2  C   UNL     1      45.913  78.909  42.114  0.00  0.00    +0.293 A 
ATOM      3  N   UNL     1      44.759  78.211  42.055  0.00  0.00    -0.195 NA
ATOM      4  C   UNL     1      44.681  77.304  43.035  0.00  0.00    +0.120 A 
ATOM      5  C   UNL     1      43.742  76.356  43.424  0.00  0.00    +0.022 A 
ATOM      6  C   UNL     1      43.959  75.544  44.514  0.00  0.00    +0.002 A 
ATOM      7  C   UNL     1      45.141  75.688  45.228  0.00  0.00    +0.003 A 
ATOM      8  C   UNL     1      46.052  76.626  44.831  0.00  0.00    +0.039 A 
ATOM      9  C   UNL     1      45.862  77.456  43.740  0.00  0.00    +0.166 A 
ATOM     10  O   UNL     1      46.555  78.407  43.166  0.00  0.00    -0.424 OA
ENDROOT
BRANCH   1  11
ATOM     11  C   UNL     1      47.730  80.341  41.349  0.00  0.00    +0.122 C 
BRANCH  11  16
ATOM     12  C   UNL     1      49.478  83.385  42.627  0.00  0.00    +0.139 A 
ATOM     13  C   UNL     1      48.445  84.086  43.193  0.00  0.00    +0.037 A 
ATOM     14  C   UNL     1      47.137  83.567  43.167  0.00  0.00    +0.003 A 
ATOM     15  C   UNL     1      46.915  82.346  42.565  0.00  0.00    -0.002 A 
ATOM     16  C   UNL     1      47.946  81.636  41.994  0.00  0.00    +0.001 A 
ATOM     17  C   UNL     1      49.223  82.138  42.017  0.00  0.00    +0.034 A 
BRANCH  12  18
ATOM     18  O   UNL     1      50.748  83.861  42.638  0.00  0.00    -0.468 OA
BRANCH  18  19
ATOM     19  C   UNL     1      51.884  83.488  41.936  0.00  0.00    +0.268 C 
BRANCH  19  20
ATOM     20  C   UNL     1      52.985  83.055  42.821  0.00  0.00    +0.404 C 
ATOM     21  O   UNL     1      54.032  82.632  42.272  0.00  0.00    -0.242 OA
ATOM     22  O   UNL     1      52.948  83.081  44.189  0.00  0.00    -0.242 OA
ENDBRANCH  19  20
BRANCH  19  24
ATOM     23  C   UNL     1      51.887  85.891  41.198  0.00  0.00    +0.004 C 
ATOM     24  C   UNL     1      52.212  84.453  40.879  0.00  0.00    +0.055 C 
ENDBRANCH  19  24
ENDBRANCH  18  19
ENDBRANCH  12  18
ENDBRANCH  11  16
ENDBRANCH   1  11
BRANCH   1  25
ATOM     25  C   UNL     1      45.539  80.609  40.281  0.00  0.00    +0.099 C 
BRANCH  25  26
ATOM     26  C   UNL     1      45.825  80.326  38.842  0.00  0.00    +0.069 C 
BRANCH  26  27
ATOM     27  C   UNL     1      44.603  80.141  37.982  0.00  0.00    +0.207 C 
BRANCH  27  28
ATOM     28  O   UNL     1      43.916  79.003  38.223  0.00  0.00    -0.475 OA
BRANCH  28  29
ATOM     29  C   UNL     1      42.631  78.581  38.188  0.00  0.00    +0.139 A 
ATOM     30  C   UNL     1      42.321  77.389  38.882  0.00  0.00    +0.040 A 
ATOM     31  C   UNL     1      41.066  76.856  38.927  0.00  0.00    +0.040 A 
ATOM     32  C   UNL     1      40.074  77.538  38.254  0.00  0.00    +0.139 A 
ATOM     33  C   UNL     1      40.347  78.709  37.567  0.00  0.00    +0.040 A 
ATOM     34  C   UNL     1      41.625  79.240  37.528  0.00  0.00    +0.040 A 
BRANCH  32  35
ATOM     35  O   UNL     1      38.793  77.051  38.263  0.00  0.00    -0.471 OA
ATOM     36  C   UNL     1      38.466  75.696  38.097  0.00  0.00    +0.252 C 
ENDBRANCH  32  35
ENDBRANCH  28  29
ENDBRANCH  27  28
ENDBRANCH  26  27
ENDBRANCH  25  26
ENDBRANCH   1  25
TORSDOF 12
