REMARK  Name = Pemetrexed
REMARK  9 active torsions:
REMARK  status: ('A' for Active; 'I' for Inactive)
REMARK    1  A    between atoms: C_3  and  C_20
REMARK    2  A    between atoms: C_6  and  C_7
REMARK    3  A    between atoms: C_7  and  C_8
REMARK    4  A    between atoms: C_8  and  C_9
REMARK    5  A    between atoms: N_22  and  CA_23
REMARK    6  A    between atoms: CA_23  and  CB_24
REMARK    7  A    between atoms: CA_23  and  C_29
REMARK    8  A    between atoms: CB_24  and  CG_25
REMARK    9  A    between atoms: CG_25  and  CD_26
REMARK                            x       y       z     vdW  Elec       q    Type
REMARK                         _______ _______ _______ _____ _____    ______ ____
ROOT
ATOM      1  C   UNK A   0      49.444  81.474  44.323  0.00  0.00    -0.004 A 
ATOM      2  C   UNK A   0      50.476  81.596  45.265  0.00  0.00    +0.004 A 
ATOM      3  C   UNK A   0      51.794  81.418  44.917  0.00  0.00    +0.055 A 
ATOM      4  C   UNK A   0      52.044  81.113  43.589  0.00  0.00    +0.004 A 
ATOM      5  C   UNK A   0      51.040  80.990  42.652  0.00  0.00    -0.004 A 
ATOM      6  C   UNK A   0      49.723  81.171  43.014  0.00  0.00    -0.022 A 
ENDROOT
BRANCH   3   7
ATOM      7  C   UNK A   0      52.920  81.539  45.828  0.00  0.00    +0.265 C 
ATOM      8  O   UNK A   0      54.064  81.741  45.383  0.00  0.00    -0.268 OA
ATOM      9  N   GLU A   1      52.795  81.439  47.264  0.00  0.00    -0.192 NA
BRANCH   9  10
ATOM     10  CA  GLU A   1      53.946  81.433  48.117  0.00  0.00    +0.199 C 
BRANCH  10  11
ATOM     11  C   GLU A   1      53.783  82.349  49.281  0.00  0.00    +0.384 C 
ATOM     12  O   GLU A   1      54.855  82.752  49.834  0.00  0.00    -0.244 OA
ATOM     13  OXT GLU A   1      52.592  82.780  49.788  0.00  0.00    -0.244 OA
ENDBRANCH  10  11
BRANCH  10  14
ATOM     14  CB  GLU A   1      54.304  80.051  48.543  0.00  0.00    +0.045 C 
BRANCH  14  15
ATOM     15  CG  GLU A   1      53.323  79.302  49.355  0.00  0.00    +0.116 C 
BRANCH  15  16
ATOM     16  CD  GLU A   1      53.651  77.960  49.796  0.00  0.00    +0.365 C 
ATOM     17  OE1 GLU A   1      52.724  77.140  50.065  0.00  0.00    -0.246 OA
ATOM     18  OE2 GLU A   1      54.953  77.535  49.935  0.00  0.00    -0.246 OA
ENDBRANCH  15  16
ENDBRANCH  14  15
ENDBRANCH  10  14
ENDBRANCH   9  10
ENDBRANCH   3   7
BRANCH   6  19
ATOM     19  C   UNK A   0      48.671  81.019  41.954  0.00  0.00    +0.031 C 
BRANCH  19  20
ATOM     20  C   UNK A   0      47.602  82.073  42.170  0.00  0.00    +0.033 C 
BRANCH  20  21
ATOM     21  C   UNK A   0      46.980  82.370  40.868  0.00  0.00    +0.005 A 
ATOM     22  C   UNK A   0      47.216  83.472  40.102  0.00  0.00    +0.097 A 
ATOM     23  N   UNK A   0      46.453  83.423  38.982  0.00  0.00    -0.225 NA
ATOM     24  C   UNK A   0      45.730  82.292  39.030  0.00  0.00    +0.170 A 
ATOM     25  C   UNK A   0      46.045  81.630  40.190  0.00  0.00    +0.091 A 
ATOM     26  C   UNK A   0      45.415  80.436  40.433  0.00  0.00    +0.284 A 
ATOM     27  O   UNK A   0      45.666  79.779  41.485  0.00  0.00    -0.265 OA
ATOM     28  N   UNK A   0      44.523  79.940  39.567  0.00  0.00    -0.172 NA
ATOM     29  C   UNK A   0      44.230  80.606  38.438  0.00  0.00    +0.261 A 
ATOM     30  N   UNK A   0      44.834  81.782  38.171  0.00  0.00    -0.192 NA
ATOM     31  N   UNK A   0      43.288  80.081  37.525  0.00  0.00    -0.086 NA
ENDBRANCH  20  21
ENDBRANCH  19  20
ENDBRANCH   6  19
TORSDOF 9
