REMARK  Name = Pemirolast
REMARK  1 active torsions:
REMARK  status: ('A' for Active; 'I' for Inactive)
REMARK    1  A    between atoms: C_10  and  C_13
REMARK                            x       y       z     vdW  Elec       q    Type
REMARK                         _______ _______ _______ _____ _____    ______ ____
ROOT
ATOM      1  C   UNL     1      43.289  76.376  40.985  0.00  0.00    +0.034 C 
ATOM      2  C   UNL     1      43.121  77.433  39.957  0.00  0.00    +0.013 A 
ATOM      3  C   UNL     1      42.089  77.305  39.054  0.00  0.00    +0.000 A 
ATOM      4  C   UNL     1      41.943  78.291  38.105  0.00  0.00    +0.019 A 
ATOM      5  C   UNL     1      42.817  79.348  38.093  0.00  0.00    +0.084 A 
ATOM      6  N   UNL     1      43.823  79.465  38.979  0.00  0.00    -0.258 N 
ATOM      7  C   UNL     1      43.992  78.506  39.929  0.00  0.00    +0.146 A 
ATOM      8  N   UNL     1      44.990  78.598  40.828  0.00  0.00    -0.226 NA
ATOM      9  C   UNL     1      45.857  79.644  40.818  0.00  0.00    +0.108 A 
ATOM     10  C   UNL     1      45.712  80.632  39.867  0.00  0.00    +0.115 A 
ATOM     11  C   UNL     1      44.678  80.498  38.969  0.00  0.00    +0.270 A 
ATOM     12  O   UNL     1      44.542  81.394  38.103  0.00  0.00    -0.266 OA
ENDROOT
BRANCH  10  13
ATOM     13  C   UNL     1      46.631  81.769  39.834  0.00  0.00    +0.214 A 
ATOM     14  N   UNL     1      46.618  82.756  38.918  0.00  0.00    -0.106 NA
ATOM     15  N   UNL     1      47.575  83.628  39.168  0.00  0.00    -0.021 NA
ATOM     16  N   UNL     1      48.191  83.198  40.236  0.00  0.00    -0.021 NA
ATOM     17  N   UNL     1      47.631  82.061  40.663  0.00  0.00    -0.106 NA
ENDBRANCH  10  13
TORSDOF 1
