REMARK  Name = Pemigatinib
REMARK  6 active torsions:
REMARK  status: ('A' for Active; 'I' for Inactive)
REMARK    1  A    between atoms: C_2  and  N_3
REMARK    2  A    between atoms: C_7  and  C_29
REMARK    3  A    between atoms: N_14  and  C_17
REMARK    4  A    between atoms: C_19  and  O_26
REMARK    5  A    between atoms: C_21  and  O_24
REMARK    6  A    between atoms: C_29  and  N_30
REMARK                            x       y       z     vdW  Elec       q    Type
REMARK                         _______ _______ _______ _____ _____    ______ ____
ROOT
ATOM      1  N   UNL     1      46.620  79.876  41.424  0.00  0.00    -0.243 N 
ATOM      2  C   UNL     1      45.931  80.464  40.331  0.00  0.00    +0.057 A 
ATOM      3  C   UNL     1      44.798  79.791  39.840  0.00  0.00    +0.051 A 
ATOM      4  C   UNL     1      44.181  78.634  40.197  0.00  0.00    +0.020 A 
ATOM      5  C   UNL     1      43.085  78.501  39.327  0.00  0.00    +0.077 A 
ATOM      6  N   UNL     1      43.073  79.544  38.501  0.00  0.00    -0.230 NA
ATOM      7  C   UNL     1      44.116  80.371  38.781  0.00  0.00    +0.163 A 
ATOM      8  N   UNL     1      44.510  81.531  38.235  0.00  0.00    -0.225 NA
ATOM      9  C   UNL     1      45.582  82.166  38.703  0.00  0.00    +0.099 A 
ATOM     10  C   UNL     1      46.330  81.655  39.767  0.00  0.00    +0.031 A 
ATOM     11  C   UNL     1      47.506  82.413  40.224  0.00  0.00    +0.129 C 
ATOM     12  N   UNL     1      48.176  81.852  41.327  0.00  0.00    -0.234 N 
ATOM     13  C   UNL     1      47.769  80.626  41.904  0.00  0.00    +0.315 C 
ATOM     14  O   UNL     1      48.424  80.154  42.875  0.00  0.00    -0.252 OA
ENDROOT
BRANCH  12  15
ATOM     15  C   UNL     1      49.291  82.528  41.885  0.00  0.00    +0.117 A 
ATOM     16  C   UNL     1      50.597  82.361  41.469  0.00  0.00    +0.190 A 
ATOM     17  C   UNL     1      51.650  83.031  42.029  0.00  0.00    +0.170 A 
ATOM     18  C   UNL     1      51.390  83.912  43.052  0.00  0.00    +0.079 A 
ATOM     19  C   UNL     1      50.094  84.110  43.500  0.00  0.00    +0.170 A 
ATOM     20  C   UNL     1      49.063  83.417  42.912  0.00  0.00    +0.190 A 
ATOM     21  F   UNL     1      47.783  83.623  43.365  0.00  0.00    -0.200 F 
ATOM     22  F   UNL     1      50.834  81.494  40.466  0.00  0.00    -0.200 F 
BRANCH  19  23
ATOM     23  O   UNL     1      49.794  85.000  44.541  0.00  0.00    -0.469 OA
ATOM     24  C   UNL     1      50.879  85.669  45.179  0.00  0.00    +0.253 C 
ENDBRANCH  19  23
BRANCH  17  25
ATOM     25  O   UNL     1      52.951  82.850  41.599  0.00  0.00    -0.469 OA
ATOM     26  C   UNL     1      53.911  83.879  41.615  0.00  0.00    +0.253 C 
ENDBRANCH  17  25
ENDBRANCH  12  15
BRANCH   1  28
ATOM     27  C   UNL     1      46.865  77.412  41.376  0.00  0.00    +0.024 C 
ATOM     28  C   UNL     1      46.307  78.641  42.068  0.00  0.00    +0.100 C 
ENDBRANCH   1  28
BRANCH   5  29
ATOM     29  C   UNL     1      42.082  77.406  39.291  0.00  0.00    +0.119 C 
BRANCH  29  30
ATOM     30  N   UNL     1      40.749  77.886  38.971  0.00  0.00    -0.263 NA
ATOM     31  C   UNL     1      39.781  76.988  39.520  0.00  0.00    +0.105 C 
ATOM     32  C   UNL     1      38.437  77.070  38.836  0.00  0.00    +0.159 C 
ATOM     33  O   UNL     1      38.646  76.852  37.475  0.00  0.00    -0.351 OA
ATOM     34  C   UNL     1      39.285  78.018  36.996  0.00  0.00    +0.159 C 
ATOM     35  C   UNL     1      40.678  78.005  37.534  0.00  0.00    +0.105 C 
ENDBRANCH  29  30
ENDBRANCH   5  29
TORSDOF 6
