REMARK  Name = Penciclovir
REMARK  5 active torsions:
REMARK  status: ('A' for Active; 'I' for Inactive)
REMARK    1  A    between atoms: N_5  and  C_6
REMARK    2  A    between atoms: C_6  and  C_7
REMARK    3  A    between atoms: C_7  and  C_8
REMARK    4  A    between atoms: C_8  and  C_9
REMARK    5  A    between atoms: C_8  and  C_11
REMARK                            x       y       z     vdW  Elec       q    Type
REMARK                         _______ _______ _______ _____ _____    ______ ____
ROOT
ATOM      1  C   UNL     1      48.034  82.769  39.893  0.00  0.00    +0.180 A 
ATOM      2  N   UNL     1      47.054  82.765  39.002  0.00  0.00    -0.217 NA
ATOM      3  C   UNL     1      46.355  81.630  39.220  0.00  0.00    +0.175 A 
ATOM      4  C   UNL     1      46.948  80.956  40.269  0.00  0.00    +0.171 A 
ATOM      5  N   UNL     1      48.004  81.680  40.685  0.00  0.00    -0.294 N 
ATOM      6  N   UNL     1      46.401  79.797  40.642  0.00  0.00    -0.192 NA
ATOM      7  C   UNL     1      45.300  79.314  40.002  0.00  0.00    +0.261 A 
ATOM      8  N   UNL     1      44.727  79.976  38.981  0.00  0.00    -0.171 NA
ATOM      9  C   UNL     1      45.245  81.145  38.573  0.00  0.00    +0.302 A 
ATOM     10  O   UNL     1      44.741  81.797  37.623  0.00  0.00    -0.263 OA
ATOM     11  N   UNL     1      44.714  78.086  40.393  0.00  0.00    -0.086 NA
ENDROOT
BRANCH   5  12
ATOM     12  C   UNL     1      48.903  81.322  41.775  0.00  0.00    +0.109 C 
BRANCH  12  13
ATOM     13  C   UNL     1      49.309  82.593  42.455  0.00  0.00    +0.030 C 
BRANCH  13  14
ATOM     14  C   UNL     1      50.545  82.473  43.289  0.00  0.00    +0.068 C 
BRANCH  14  15
ATOM     15  C   UNL     1      50.276  81.390  44.327  0.00  0.00    +0.185 C 
ATOM     16  O   UNL     1      51.219  80.370  44.227  0.00  0.00    -0.220 OA
ENDBRANCH  14  15
BRANCH  14  17
ATOM     17  C   UNL     1      51.739  82.017  42.484  0.00  0.00    +0.185 C 
ATOM     18  O   UNL     1      52.258  83.078  41.768  0.00  0.00    -0.220 OA
ENDBRANCH  14  17
ENDBRANCH  13  14
ENDBRANCH  12  13
ENDBRANCH   5  12
TORSDOF 5
