REMARK  Name = Penfluridol
REMARK  8 active torsions:
REMARK  status: ('A' for Active; 'I' for Inactive)
REMARK    1  A    between atoms: N_3  and  C_19
REMARK    2  A    between atoms: C_6  and  C_7
REMARK    3  A    between atoms: C_9  and  C_14
REMARK    4  A    between atoms: C_19  and  C_20
REMARK    5  A    between atoms: C_20  and  C_21
REMARK    6  A    between atoms: C_21  and  C_22
REMARK    7  A    between atoms: C_22  and  C_23
REMARK    8  A    between atoms: C_22  and  C_30
REMARK                            x       y       z     vdW  Elec       q    Type
REMARK                         _______ _______ _______ _____ _____    ______ ____
ROOT
ATOM      1  C   UNL     1      46.124  82.138  40.017  0.00  0.00    +0.052 C 
ATOM      2  C   UNL     1      45.756  81.242  38.822  0.00  0.00    +0.075 C 
ATOM      3  N   UNL     1      45.738  79.883  39.230  0.00  0.00    -0.272 NA
ATOM      4  C   UNL     1      46.643  79.598  40.324  0.00  0.00    +0.075 C 
ATOM      5  C   UNL     1      47.856  80.484  40.394  0.00  0.00    +0.052 C 
ATOM      6  C   UNL     1      47.641  81.917  40.145  0.00  0.00    +0.148 C 
ATOM      7  O   UNL     1      48.185  82.259  38.882  0.00  0.00    -0.221 OA
ENDROOT
BRANCH   6   8
ATOM      8  C   UNL     1      48.136  82.882  41.107  0.00  0.00    +0.005 A 
ATOM      9  C   UNL     1      49.518  82.946  41.308  0.00  0.00    +0.003 A 
ATOM     10  C   UNL     1      50.114  83.804  42.179  0.00  0.00    +0.082 A 
ATOM     11  C   UNL     1      49.347  84.677  42.928  0.00  0.00    +0.062 A 
ATOM     12  C   UNL     1      47.988  84.642  42.757  0.00  0.00    +0.011 A 
ATOM     13  C   UNL     1      47.391  83.751  41.854  0.00  0.00    -0.001 A 
ATOM     14 CL   UNL     1      50.080  85.793  44.060  0.00  0.00    -0.082 Cl
BRANCH  10  15
ATOM     15  C   UNL     1      51.597  83.860  42.387  0.00  0.00    +0.419 C 
ATOM     16  F   UNL     1      51.864  83.852  43.739  0.00  0.00    -0.166 F 
ATOM     17  F   UNL     1      52.258  82.890  41.704  0.00  0.00    -0.166 F 
ATOM     18  F   UNL     1      51.995  85.121  41.931  0.00  0.00    -0.166 F 
ENDBRANCH  10  15
ENDBRANCH   6   8
BRANCH   3  19
ATOM     19  C   UNL     1      44.425  79.539  39.726  0.00  0.00    +0.072 C 
BRANCH  19  20
ATOM     20  C   UNL     1      44.191  78.075  39.760  0.00  0.00    +0.018 C 
BRANCH  20  21
ATOM     21  C   UNL     1      43.056  77.655  38.834  0.00  0.00    +0.010 C 
BRANCH  21  22
ATOM     22  C   UNL     1      41.841  77.305  39.629  0.00  0.00    +0.045 C 
BRANCH  22  23
ATOM     23  C   UNL     1      40.748  76.721  38.790  0.00  0.00    -0.018 A 
ATOM     24  C   UNL     1      39.521  76.453  39.352  0.00  0.00    -0.002 A 
ATOM     25  C   UNL     1      38.480  75.933  38.592  0.00  0.00    +0.029 A 
ATOM     26  C   UNL     1      38.645  75.668  37.243  0.00  0.00    +0.140 A 
ATOM     27  C   UNL     1      39.881  75.945  36.708  0.00  0.00    +0.029 A 
ATOM     28  C   UNL     1      40.937  76.465  37.452  0.00  0.00    -0.002 A 
ATOM     29  F   UNL     1      37.647  75.163  36.495  0.00  0.00    -0.204 F 
ENDBRANCH  22  23
BRANCH  22  30
ATOM     30  C   UNL     1      42.251  76.253  40.621  0.00  0.00    -0.018 A 
ATOM     31  C   UNL     1      42.405  74.951  40.231  0.00  0.00    -0.002 A 
ATOM     32  C   UNL     1      42.804  74.017  41.163  0.00  0.00    +0.029 A 
ATOM     33  C   UNL     1      43.059  74.325  42.484  0.00  0.00    +0.140 A 
ATOM     34  C   UNL     1      42.898  75.640  42.859  0.00  0.00    +0.029 A 
ATOM     35  C   UNL     1      42.494  76.592  41.922  0.00  0.00    -0.002 A 
ATOM     36  F   UNL     1      43.450  73.350  43.355  0.00  0.00    -0.204 F 
ENDBRANCH  22  30
ENDBRANCH  21  22
ENDBRANCH  20  21
ENDBRANCH  19  20
ENDBRANCH   3  19
TORSDOF 8
