REMARK  Name = Penicillingit
REMARK  4 active torsions:
REMARK  status: ('A' for Active; 'I' for Inactive)
REMARK    1  A    between atoms: CA_3  and  C_20
REMARK    2  A    between atoms: CA_7  and  N_10
REMARK    3  A    between atoms: C_11  and  C_13
REMARK    4  A    between atoms: C_13  and  C_14
REMARK                            x       y       z     vdW  Elec       q    Type
REMARK                         _______ _______ _______ _____ _____    ______ ____
ROOT
ATOM      1  C   UNL     1      49.742  82.038  42.875  0.00  0.00    +0.013 C 
ATOM      2  C   UNL     1      49.106  81.731  41.561  0.00  0.00    +0.068 C 
ATOM      3  CA  UNL     1      48.160  82.802  41.063  0.00  0.00    +0.189 C 
ATOM      4  N   UNL     1      47.138  82.184  40.271  0.00  0.00    -0.259 N 
ATOM      5  C   UNL     1      46.497  81.105  40.996  0.00  0.00    +0.153 C 
ATOM      6  S   UNL     1      47.981  80.299  41.691  0.00  0.00    -0.118 S 
ATOM      7  CA  UNL     1      46.001  80.488  39.706  0.00  0.00    +0.200 C 
ATOM      8  C   UNL     1      46.270  81.886  39.191  0.00  0.00    +0.249 C 
ATOM      9  O   UNL     1      45.812  82.443  38.158  0.00  0.00    -0.273 OA
ATOM     10  C   UNL     1      50.167  81.487  40.508  0.00  0.00    +0.013 C 
ENDROOT
BRANCH   7  11
ATOM     11  N   UNL     1      44.576  80.272  39.732  0.00  0.00    -0.195 NA
ATOM     12  C   UNL     1      43.930  79.116  39.220  0.00  0.00    +0.246 C 
ATOM     13  O   UNL     1      44.610  78.058  39.190  0.00  0.00    -0.273 OA
BRANCH  12  14
ATOM     14  C   UNL     1      42.521  79.167  38.747  0.00  0.00    +0.113 C 
BRANCH  14  15
ATOM     15  C   UNL     1      41.885  77.854  38.681  0.00  0.00    -0.013 A 
ATOM     16  C   UNL     1      41.158  77.525  37.558  0.00  0.00    -0.004 A 
ATOM     17  C   UNL     1      40.524  76.311  37.405  0.00  0.00    -0.000 A 
ATOM     18  C   UNL     1      40.624  75.389  38.426  0.00  0.00    -0.000 A 
ATOM     19  C   UNL     1      41.352  75.703  39.564  0.00  0.00    -0.000 A 
ATOM     20  C   UNL     1      41.978  76.924  39.694  0.00  0.00    -0.004 A 
ENDBRANCH  14  15
ENDBRANCH  12  14
ENDBRANCH   7  11
BRANCH   3  21
ATOM     21  C   UNL     1      47.538  83.485  42.212  0.00  0.00    +0.383 C 
ATOM     22  O   UNL     1      46.459  83.054  42.738  0.00  0.00    -0.244 OA
ATOM     23  OXT UNL     1      48.076  84.625  42.791  0.00  0.00    -0.244 OA
ENDBRANCH   3  21
TORSDOF 4
