REMARK  Name = Penicillin_V
REMARK  5 active torsions:
REMARK  status: ('A' for Active; 'I' for Inactive)
REMARK    1  A    between atoms: CA_3  and  C_21
REMARK    2  A    between atoms: CA_7  and  N_10
REMARK    3  A    between atoms: C_11  and  C_13
REMARK    4  A    between atoms: C_13  and  O_14
REMARK    5  A    between atoms: O_14  and  C_15
REMARK                            x       y       z     vdW  Elec       q    Type
REMARK                         _______ _______ _______ _____ _____    ______ ____
ROOT
ATOM      1  C   UNL     1      48.147  84.718  43.389  0.00  0.00    +0.013 C 
ATOM      2  C   UNL     1      48.751  83.348  43.294  0.00  0.00    +0.068 C 
ATOM      3  CA  UNL     1      49.680  83.179  42.144  0.00  0.00    +0.189 C 
ATOM      4  N   UNL     1      49.002  82.486  41.084  0.00  0.00    -0.259 N 
ATOM      5  C   UNL     1      48.353  81.268  41.601  0.00  0.00    +0.153 C 
ATOM      6  S   UNL     1      47.459  82.072  42.990  0.00  0.00    -0.118 S 
ATOM      7  CA  UNL     1      47.569  81.102  40.342  0.00  0.00    +0.200 C 
ATOM      8  C   UNL     1      48.479  82.116  39.812  0.00  0.00    +0.249 C 
ATOM      9  O   UNL     1      48.736  82.538  38.659  0.00  0.00    -0.273 OA
ATOM     10  C   UNL     1      49.454  82.930  44.561  0.00  0.00    +0.013 C 
ENDROOT
BRANCH   7  11
ATOM     11  N   UNL     1      46.178  81.409  40.388  0.00  0.00    -0.192 NA
ATOM     12  C   UNL     1      45.400  81.403  39.208  0.00  0.00    +0.286 C 
ATOM     13  O   UNL     1      45.336  82.465  38.535  0.00  0.00    -0.269 OA
BRANCH  12  14
ATOM     14  C   UNL     1      44.654  80.228  38.710  0.00  0.00    +0.291 C 
BRANCH  14  15
ATOM     15  O   UNL     1      43.666  79.815  39.637  0.00  0.00    -0.466 OA
BRANCH  15  16
ATOM     16  C   UNL     1      42.869  78.741  39.300  0.00  0.00    +0.139 A 
ATOM     17  C   UNL     1      42.762  77.614  40.113  0.00  0.00    +0.037 A 
ATOM     18  C   UNL     1      41.965  76.545  39.772  0.00  0.00    +0.003 A 
ATOM     19  C   UNL     1      41.253  76.609  38.575  0.00  0.00    +0.000 A 
ATOM     20  C   UNL     1      41.361  77.722  37.774  0.00  0.00    +0.003 A 
ATOM     21  C   UNL     1      42.158  78.777  38.130  0.00  0.00    +0.037 A 
ENDBRANCH  15  16
ENDBRANCH  14  15
ENDBRANCH  12  14
ENDBRANCH   7  11
BRANCH   3  22
ATOM     22  C   UNL     1      50.987  82.574  42.471  0.00  0.00    +0.383 C 
ATOM     23  O   UNL     1      51.763  83.216  43.224  0.00  0.00    -0.244 OA
ATOM     24  OXT UNL     1      51.425  81.345  42.008  0.00  0.00    -0.244 OA
ENDBRANCH   3  22
TORSDOF 5
