REMARK  Name = Penicillin_G_Procaine
REMARK  11 active torsions:
REMARK  status: ('A' for Active; 'I' for Inactive)
REMARK    1  A    between atoms: C_2  and  N_3
REMARK    2  A    between atoms: N_3  and  C_4
REMARK    3  A    between atoms: N_3  and  C_6
REMARK    4  A    between atoms: C_6  and  C_7
REMARK    5  A    between atoms: C_7  and  O_8
REMARK    6  A    between atoms: O_8  and  C_9
REMARK    7  A    between atoms: C_9  and  C_11
REMARK    8  A    between atoms: CA_20  and  C_37
REMARK    9  A    between atoms: CA_24  and  N_27
REMARK   10  A    between atoms: C_28  and  C_30
REMARK   11  A    between atoms: C_30  and  C_31
REMARK                            x       y       z     vdW  Elec       q    Type
REMARK                         _______ _______ _______ _____ _____    ______ ____
ROOT
ATOM      1  C   UNL     1      46.511  82.185  41.413  0.00  0.00    +0.341 C 
ATOM      2  O   UNL     1      45.784  83.167  41.024  0.00  0.00    -0.245 OA
ENDROOT
BRANCH   1   3
ATOM      3  C   UNL     1      47.857  82.470  41.807  0.00  0.00    +0.076 A 
ATOM      4  C   UNL     1      48.352  83.770  41.675  0.00  0.00    +0.008 A 
ATOM      5  C   UNL     1      49.641  84.109  42.033  0.00  0.00    +0.018 A 
ATOM      6  C   UNL     1      50.486  83.147  42.542  0.00  0.00    +0.089 A 
ATOM      7  C   UNL     1      50.037  81.856  42.688  0.00  0.00    +0.018 A 
ATOM      8  C   UNL     1      48.731  81.535  42.320  0.00  0.00    +0.008 A 
ATOM      9  N   UNL     1      51.800  83.529  42.885  0.00  0.00    -0.128 NA
ENDBRANCH   1   3
BRANCH   1  10
ATOM     10  O   UNL     1      45.943  80.896  41.421  0.00  0.00    -0.444 OA
BRANCH  10  11
ATOM     11  C   UNL     1      44.609  80.848  40.982  0.00  0.00    +0.226 C 
BRANCH  11  12
ATOM     12  C   UNL     1      43.976  79.527  40.882  0.00  0.00    +0.120 C 
BRANCH  12  13
ATOM     13  N   UNL     1      44.584  78.586  39.992  0.00  0.00    -0.270 NA
BRANCH  13  15
ATOM     14  C   UNL     1      43.239  76.975  41.287  0.00  0.00    +0.019 C 
ATOM     15  C   UNL     1      43.719  77.434  39.923  0.00  0.00    +0.072 C 
ENDBRANCH  13  15
BRANCH  13  16
ATOM     16  C   UNL     1      44.922  79.042  38.698  0.00  0.00    +0.072 C 
ATOM     17  C   UNL     1      43.787  79.668  37.934  0.00  0.00    +0.019 C 
ENDBRANCH  13  16
ENDBRANCH  12  13
ENDBRANCH  11  12
ENDBRANCH  10  11
ENDBRANCH   1  10
TORSDOF 7
REMARK  Name = Penicillin_G_Procaine
REMARK  11 active torsions:
REMARK  status: ('A' for Active; 'I' for Inactive)
REMARK    1  A    between atoms: C_2  and  N_3
REMARK    2  A    between atoms: N_3  and  C_4
REMARK    3  A    between atoms: N_3  and  C_6
REMARK    4  A    between atoms: C_6  and  C_7
REMARK    5  A    between atoms: C_7  and  O_8
REMARK    6  A    between atoms: O_8  and  C_9
REMARK    7  A    between atoms: C_9  and  C_11
REMARK    8  A    between atoms: CA_20  and  C_37
REMARK    9  A    between atoms: CA_24  and  N_27
REMARK   10  A    between atoms: C_28  and  C_30
REMARK   11  A    between atoms: C_30  and  C_31
REMARK                            x       y       z     vdW  Elec       q    Type
REMARK                         _______ _______ _______ _____ _____    ______ ____
ROOT
ATOM      1  C   UNL     1      44.445  77.298  37.702  0.00  0.00    +0.013 C 
ATOM      2  C   UNL     1      43.904  77.622  39.050  0.00  0.00    +0.068 C 
ATOM      3  CA  UNL     1      43.220  78.972  38.989  0.00  0.00    +0.189 C 
ATOM      4  N   UNL     1      44.179  79.992  39.288  0.00  0.00    -0.259 N 
ATOM      5  C   UNL     1      44.806  79.715  40.562  0.00  0.00    +0.153 C 
ATOM      6  S   UNL     1      45.200  77.943  40.281  0.00  0.00    -0.118 S 
ATOM      7  CA  UNL     1      45.948  80.639  40.241  0.00  0.00    +0.200 C 
ATOM      8  C   UNL     1      44.988  81.151  39.199  0.00  0.00    +0.249 C 
ATOM      9  O   UNL     1      45.024  82.239  38.564  0.00  0.00    -0.273 OA
ATOM     10  C   UNL     1      42.991  76.535  39.544  0.00  0.00    +0.013 C 
ENDROOT
BRANCH   7  11
ATOM     11  N   UNL     1      46.129  81.624  41.249  0.00  0.00    -0.195 NA
ATOM     12  C   UNL     1      47.428  81.947  41.709  0.00  0.00    +0.246 C 
ATOM     13  O   UNL     1      48.396  81.321  41.182  0.00  0.00    -0.273 OA
BRANCH  12  14
ATOM     14  C   UNL     1      47.704  82.953  42.747  0.00  0.00    +0.113 C 
BRANCH  14  15
ATOM     15  C   UNL     1      49.160  83.042  42.989  0.00  0.00    -0.013 A 
ATOM     16  C   UNL     1      49.971  83.923  42.275  0.00  0.00    -0.004 A 
ATOM     17  C   UNL     1      51.330  84.015  42.492  0.00  0.00    -0.000 A 
ATOM     18  C   UNL     1      51.930  83.204  43.457  0.00  0.00    -0.000 A 
ATOM     19  C   UNL     1      51.141  82.324  44.174  0.00  0.00    -0.000 A 
ATOM     20  C   UNL     1      49.801  82.259  43.934  0.00  0.00    -0.004 A 
ENDBRANCH  14  15
ENDBRANCH  12  14
ENDBRANCH   7  11
BRANCH   3  21
ATOM     21  C   UNL     1      42.073  79.090  39.893  0.00  0.00    +0.383 C 
ATOM     22  O   UNL     1      41.090  78.291  39.877  0.00  0.00    -0.244 OA
ATOM     23  OXT UNL     1      42.036  80.117  40.818  0.00  0.00    -0.244 OA
ENDBRANCH   3  21
TORSDOF 4
REMARK  Name = Penicillin_G_Procaine
REMARK  11 active torsions:
REMARK  status: ('A' for Active; 'I' for Inactive)
REMARK    1  A    between atoms: C_2  and  N_3
REMARK    2  A    between atoms: N_3  and  C_4
REMARK    3  A    between atoms: N_3  and  C_6
REMARK    4  A    between atoms: C_6  and  C_7
REMARK    5  A    between atoms: C_7  and  O_8
REMARK    6  A    between atoms: O_8  and  C_9
REMARK    7  A    between atoms: C_9  and  C_11
REMARK    8  A    between atoms: CA_20  and  C_37
REMARK    9  A    between atoms: CA_24  and  N_27
REMARK   10  A    between atoms: C_28  and  C_30
REMARK   11  A    between atoms: C_30  and  C_31
REMARK                            x       y       z     vdW  Elec       q    Type
REMARK                         _______ _______ _______ _____ _____    ______ ____
ROOT
ATOM      1  O   HOH     1      46.328  80.599  40.513  0.00  0.00    +0.000 OA
ENDROOT
TORSDOF 0
