REMARK  Name = Penicillin_G_Benzathine
REMARK  15 active torsions:
REMARK  status: ('A' for Active; 'I' for Inactive)
REMARK    1  A    between atoms: CA_3  and  C_20
REMARK    2  A    between atoms: CA_7  and  N_10
REMARK    3  A    between atoms: C_11  and  C_13
REMARK    4  A    between atoms: C_13  and  C_14
REMARK    5  A    between atoms: CA_26  and  C_43
REMARK    6  A    between atoms: CA_30  and  N_33
REMARK    7  A    between atoms: C_34  and  C_36
REMARK    8  A    between atoms: C_36  and  C_37
REMARK    9  A    between atoms: C_50  and  C_53
REMARK   10  A    between atoms: C_53  and  N_54
REMARK   11  A    between atoms: N_54  and  C_55
REMARK   12  A    between atoms: C_55  and  C_56
REMARK   13  A    between atoms: C_56  and  N_57
REMARK   14  A    between atoms: N_57  and  C_58
REMARK   15  A    between atoms: C_58  and  C_59
REMARK                            x       y       z     vdW  Elec       q    Type
REMARK                         _______ _______ _______ _____ _____    ______ ____
ROOT
ATOM      1  C   UNL     1      43.885  77.739  38.862  0.00  0.00    +0.013 C 
ATOM      2  C   UNL     1      44.770  78.115  39.990  0.00  0.00    +0.068 C 
ATOM      3  CA  UNL     1      44.006  78.270  41.314  0.00  0.00    +0.189 C 
ATOM      4  N   UNL     1      44.894  79.029  42.166  0.00  0.00    -0.259 N 
ATOM      5  C   UNL     1      45.033  80.365  41.559  0.00  0.00    +0.153 C 
ATOM      6  S   UNL     1      45.383  79.844  39.842  0.00  0.00    -0.118 S 
ATOM      7  CA  UNL     1      46.262  80.628  42.395  0.00  0.00    +0.200 C 
ATOM      8  C   UNL     1      45.770  79.457  43.199  0.00  0.00    +0.249 C 
ATOM      9  O   UNL     1      46.087  79.083  44.358  0.00  0.00    -0.273 OA
ATOM     10  C   UNL     1      45.963  77.235  40.180  0.00  0.00    +0.013 C 
ENDROOT
BRANCH   7  11
ATOM     11  N   UNL     1      47.523  80.432  41.750  0.00  0.00    -0.195 NA
ATOM     12  C   UNL     1      48.533  81.417  41.840  0.00  0.00    +0.246 C 
ATOM     13  O   UNL     1      48.285  82.465  42.502  0.00  0.00    -0.273 OA
BRANCH  12  14
ATOM     14  C   UNL     1      49.862  81.249  41.180  0.00  0.00    +0.113 C 
BRANCH  14  15
ATOM     15  C   UNL     1      50.696  82.439  41.453  0.00  0.00    -0.013 A 
ATOM     16  C   UNL     1      50.705  83.544  40.633  0.00  0.00    -0.004 A 
ATOM     17  C   UNL     1      51.503  84.648  40.918  0.00  0.00    -0.000 A 
ATOM     18  C   UNL     1      52.301  84.647  42.037  0.00  0.00    -0.000 A 
ATOM     19  C   UNL     1      52.308  83.549  42.873  0.00  0.00    -0.000 A 
ATOM     20  C   UNL     1      51.501  82.450  42.571  0.00  0.00    -0.004 A 
ENDBRANCH  14  15
ENDBRANCH  12  14
ENDBRANCH   7  11
BRANCH   3  21
ATOM     21  C   UNL     1      43.642  76.987  41.900  0.00  0.00    +0.383 C 
ATOM     22  O   UNL     1      44.078  76.634  43.015  0.00  0.00    -0.244 OA
ATOM     23  OXT UNL     1      42.792  76.142  41.199  0.00  0.00    -0.244 OA
ENDBRANCH   3  21
TORSDOF 4
REMARK  Name = Penicillin_G_Benzathine
REMARK  15 active torsions:
REMARK  status: ('A' for Active; 'I' for Inactive)
REMARK    1  A    between atoms: CA_3  and  C_20
REMARK    2  A    between atoms: CA_7  and  N_10
REMARK    3  A    between atoms: C_11  and  C_13
REMARK    4  A    between atoms: C_13  and  C_14
REMARK    5  A    between atoms: CA_26  and  C_43
REMARK    6  A    between atoms: CA_30  and  N_33
REMARK    7  A    between atoms: C_34  and  C_36
REMARK    8  A    between atoms: C_36  and  C_37
REMARK    9  A    between atoms: C_50  and  C_53
REMARK   10  A    between atoms: C_53  and  N_54
REMARK   11  A    between atoms: N_54  and  C_55
REMARK   12  A    between atoms: C_55  and  C_56
REMARK   13  A    between atoms: C_56  and  N_57
REMARK   14  A    between atoms: N_57  and  C_58
REMARK   15  A    between atoms: C_58  and  C_59
REMARK                            x       y       z     vdW  Elec       q    Type
REMARK                         _______ _______ _______ _____ _____    ______ ____
ROOT
ATOM      1  C   UNL     1      45.732  75.695  40.424  0.00  0.00    +0.013 C 
ATOM      2  C   UNL     1      45.520  77.145  40.710  0.00  0.00    +0.068 C 
ATOM      3  CA  UNL     1      45.009  77.921  39.508  0.00  0.00    +0.189 C 
ATOM      4  N   UNL     1      45.488  79.269  39.639  0.00  0.00    -0.259 N 
ATOM      5  C   UNL     1      46.938  79.233  39.636  0.00  0.00    +0.153 C 
ATOM      6  S   UNL     1      47.175  77.927  40.906  0.00  0.00    -0.118 S 
ATOM      7  CA  UNL     1      46.977  80.630  40.178  0.00  0.00    +0.200 C 
ATOM      8  C   UNL     1      45.554  80.671  39.776  0.00  0.00    +0.249 C 
ATOM      9  O   UNL     1      44.764  81.659  39.633  0.00  0.00    -0.273 OA
ATOM     10  C   UNL     1      44.678  77.358  41.929  0.00  0.00    +0.013 C 
ENDROOT
BRANCH   7  11
ATOM     11  N   UNL     1      47.246  80.769  41.571  0.00  0.00    -0.195 NA
ATOM     12  C   UNL     1      48.231  81.695  41.995  0.00  0.00    +0.246 C 
ATOM     13  O   UNL     1      48.821  82.353  41.104  0.00  0.00    -0.273 OA
BRANCH  12  14
ATOM     14  C   UNL     1      48.562  81.889  43.428  0.00  0.00    +0.113 C 
BRANCH  14  15
ATOM     15  C   UNL     1      49.606  82.893  43.639  0.00  0.00    -0.013 A 
ATOM     16  C   UNL     1      49.297  84.219  43.818  0.00  0.00    -0.004 A 
ATOM     17  C   UNL     1      50.301  85.168  44.018  0.00  0.00    -0.000 A 
ATOM     18  C   UNL     1      51.622  84.765  44.036  0.00  0.00    -0.000 A 
ATOM     19  C   UNL     1      51.930  83.451  43.860  0.00  0.00    -0.000 A 
ATOM     20  C   UNL     1      50.925  82.520  43.662  0.00  0.00    -0.004 A 
ENDBRANCH  14  15
ENDBRANCH  12  14
ENDBRANCH   7  11
BRANCH   3  21
ATOM     21  C   UNL     1      43.561  77.827  39.332  0.00  0.00    +0.383 C 
ATOM     22  O   UNL     1      42.843  78.840  39.304  0.00  0.00    -0.244 OA
ATOM     23  OXT UNL     1      42.995  76.567  39.196  0.00  0.00    -0.244 OA
ENDBRANCH   3  21
TORSDOF 4
REMARK  Name = Penicillin_G_Benzathine
REMARK  15 active torsions:
REMARK  status: ('A' for Active; 'I' for Inactive)
REMARK    1  A    between atoms: CA_3  and  C_20
REMARK    2  A    between atoms: CA_7  and  N_10
REMARK    3  A    between atoms: C_11  and  C_13
REMARK    4  A    between atoms: C_13  and  C_14
REMARK    5  A    between atoms: CA_26  and  C_43
REMARK    6  A    between atoms: CA_30  and  N_33
REMARK    7  A    between atoms: C_34  and  C_36
REMARK    8  A    between atoms: C_36  and  C_37
REMARK    9  A    between atoms: C_50  and  C_53
REMARK   10  A    between atoms: C_53  and  N_54
REMARK   11  A    between atoms: N_54  and  C_55
REMARK   12  A    between atoms: C_55  and  C_56
REMARK   13  A    between atoms: C_56  and  N_57
REMARK   14  A    between atoms: N_57  and  C_58
REMARK   15  A    between atoms: C_58  and  C_59
REMARK                            x       y       z     vdW  Elec       q    Type
REMARK                         _______ _______ _______ _____ _____    ______ ____
ROOT
ATOM      1  C   UNL     1      48.295  79.621  40.785  0.00  0.00    +0.108 C 
ENDROOT
BRANCH   1   2
ATOM      2  N   UNL     1      48.488  80.617  41.792  0.00  0.00    -0.212 NA
BRANCH   2   3
ATOM      3  C   UNL     1      49.136  81.796  41.325  0.00  0.00    +0.115 C 
BRANCH   3   7
ATOM      4  C   UNL     1      49.762  84.829  44.338  0.00  0.00    -0.000 A 
ATOM      5  C   UNL     1      48.636  84.817  43.549  0.00  0.00    -0.000 A 
ATOM      6  C   UNL     1      48.426  83.851  42.583  0.00  0.00    -0.003 A 
ATOM      7  C   UNL     1      49.353  82.836  42.360  0.00  0.00    -0.005 A 
ATOM      8  C   UNL     1      50.482  82.850  43.152  0.00  0.00    -0.003 A 
ATOM      9  C   UNL     1      50.692  83.811  44.114  0.00  0.00    -0.000 A 
ENDBRANCH   3   7
ENDBRANCH   2   3
ENDBRANCH   1   2
BRANCH   1  10
ATOM     10  C   UNL     1      47.688  78.352  41.369  0.00  0.00    +0.108 C 
BRANCH  10  11
ATOM     11  N   UNL     1      47.500  77.345  40.352  0.00  0.00    -0.212 NA
BRANCH  11  12
ATOM     12  C   UNL     1      46.455  77.660  39.398  0.00  0.00    +0.115 C 
BRANCH  12  13
ATOM     13  C   UNL     1      45.120  77.681  40.061  0.00  0.00    -0.005 A 
ATOM     14  C   UNL     1      44.602  78.825  40.609  0.00  0.00    -0.003 A 
ATOM     15  C   UNL     1      43.354  78.838  41.232  0.00  0.00    -0.000 A 
ATOM     16  C   UNL     1      42.591  77.705  41.323  0.00  0.00    -0.000 A 
ATOM     17  C   UNL     1      43.102  76.530  40.772  0.00  0.00    -0.000 A 
ATOM     18  C   UNL     1      44.334  76.527  40.159  0.00  0.00    -0.003 A 
ENDBRANCH  12  13
ENDBRANCH  11  12
ENDBRANCH  10  11
ENDBRANCH   1  10
TORSDOF 7
REMARK  Name = Penicillin_G_Benzathine
REMARK  15 active torsions:
REMARK  status: ('A' for Active; 'I' for Inactive)
REMARK    1  A    between atoms: CA_3  and  C_20
REMARK    2  A    between atoms: CA_7  and  N_10
REMARK    3  A    between atoms: C_11  and  C_13
REMARK    4  A    between atoms: C_13  and  C_14
REMARK    5  A    between atoms: CA_26  and  C_43
REMARK    6  A    between atoms: CA_30  and  N_33
REMARK    7  A    between atoms: C_34  and  C_36
REMARK    8  A    between atoms: C_36  and  C_37
REMARK    9  A    between atoms: C_50  and  C_53
REMARK   10  A    between atoms: C_53  and  N_54
REMARK   11  A    between atoms: N_54  and  C_55
REMARK   12  A    between atoms: C_55  and  C_56
REMARK   13  A    between atoms: C_56  and  N_57
REMARK   14  A    between atoms: N_57  and  C_58
REMARK   15  A    between atoms: C_58  and  C_59
REMARK                            x       y       z     vdW  Elec       q    Type
REMARK                         _______ _______ _______ _____ _____    ______ ____
ROOT
ATOM      1  O   HOH     1      47.486  79.917  41.471  0.00  0.00    +0.000 OA
ENDROOT
TORSDOF 0
REMARK  Name = Penicillin_G_Benzathine
REMARK  15 active torsions:
REMARK  status: ('A' for Active; 'I' for Inactive)
REMARK    1  A    between atoms: CA_3  and  C_20
REMARK    2  A    between atoms: CA_7  and  N_10
REMARK    3  A    between atoms: C_11  and  C_13
REMARK    4  A    between atoms: C_13  and  C_14
REMARK    5  A    between atoms: CA_26  and  C_43
REMARK    6  A    between atoms: CA_30  and  N_33
REMARK    7  A    between atoms: C_34  and  C_36
REMARK    8  A    between atoms: C_36  and  C_37
REMARK    9  A    between atoms: C_50  and  C_53
REMARK   10  A    between atoms: C_53  and  N_54
REMARK   11  A    between atoms: N_54  and  C_55
REMARK   12  A    between atoms: C_55  and  C_56
REMARK   13  A    between atoms: C_56  and  N_57
REMARK   14  A    between atoms: N_57  and  C_58
REMARK   15  A    between atoms: C_58  and  C_59
REMARK                            x       y       z     vdW  Elec       q    Type
REMARK                         _______ _______ _______ _____ _____    ______ ____
ROOT
ATOM      1  O   HOH     1      47.492  79.908  41.471  0.00  0.00    +0.000 OA
ENDROOT
TORSDOF 0
REMARK  Name = Penicillin_G_Benzathine
REMARK  15 active torsions:
REMARK  status: ('A' for Active; 'I' for Inactive)
REMARK    1  A    between atoms: CA_3  and  C_20
REMARK    2  A    between atoms: CA_7  and  N_10
REMARK    3  A    between atoms: C_11  and  C_13
REMARK    4  A    between atoms: C_13  and  C_14
REMARK    5  A    between atoms: CA_26  and  C_43
REMARK    6  A    between atoms: CA_30  and  N_33
REMARK    7  A    between atoms: C_34  and  C_36
REMARK    8  A    between atoms: C_36  and  C_37
REMARK    9  A    between atoms: C_50  and  C_53
REMARK   10  A    between atoms: C_53  and  N_54
REMARK   11  A    between atoms: N_54  and  C_55
REMARK   12  A    between atoms: C_55  and  C_56
REMARK   13  A    between atoms: C_56  and  N_57
REMARK   14  A    between atoms: N_57  and  C_58
REMARK   15  A    between atoms: C_58  and  C_59
REMARK                            x       y       z     vdW  Elec       q    Type
REMARK                         _______ _______ _______ _____ _____    ______ ____
ROOT
ATOM      1  O   HOH     1      47.498  79.905  41.473  0.00  0.00    +0.000 OA
ENDROOT
TORSDOF 0
REMARK  Name = Penicillin_G_Benzathine
REMARK  15 active torsions:
REMARK  status: ('A' for Active; 'I' for Inactive)
REMARK    1  A    between atoms: CA_3  and  C_20
REMARK    2  A    between atoms: CA_7  and  N_10
REMARK    3  A    between atoms: C_11  and  C_13
REMARK    4  A    between atoms: C_13  and  C_14
REMARK    5  A    between atoms: CA_26  and  C_43
REMARK    6  A    between atoms: CA_30  and  N_33
REMARK    7  A    between atoms: C_34  and  C_36
REMARK    8  A    between atoms: C_36  and  C_37
REMARK    9  A    between atoms: C_50  and  C_53
REMARK   10  A    between atoms: C_53  and  N_54
REMARK   11  A    between atoms: N_54  and  C_55
REMARK   12  A    between atoms: C_55  and  C_56
REMARK   13  A    between atoms: C_56  and  N_57
REMARK   14  A    between atoms: N_57  and  C_58
REMARK   15  A    between atoms: C_58  and  C_59
REMARK                            x       y       z     vdW  Elec       q    Type
REMARK                         _______ _______ _______ _____ _____    ______ ____
ROOT
ATOM      1  O   HOH     1      47.501  79.901  41.473  0.00  0.00    +0.000 OA
ENDROOT
TORSDOF 0
