REMARK  Name = Pentostatin
REMARK  2 active torsions:
REMARK  status: ('A' for Active; 'I' for Inactive)
REMARK    1  A    between atoms: C4*_3  and  C5*_17
REMARK    2  A    between atoms: C1*_5  and  N_6
REMARK                            x       y       z     vdW  Elec       q    Type
REMARK                         _______ _______ _______ _____ _____    ______ ____
ROOT
ATOM      1  N   UNL     1      45.330  78.825  40.587  0.00  0.00    -0.274 N 
ATOM      2  C   UNL     1      46.379  78.606  41.416  0.00  0.00    +0.181 A 
ATOM      3  N   UNL     1      47.217  79.663  41.374  0.00  0.00    -0.224 NA
ATOM      4  C   UNL     1      46.726  80.572  40.524  0.00  0.00    +0.125 A 
ATOM      5  C   UNL     1      45.544  80.032  40.041  0.00  0.00    +0.154 A 
ATOM      6  N   UNL     1      44.700  80.693  39.098  0.00  0.00    -0.173 NA
ATOM      7  C   UNL     1      44.824  82.022  38.567  0.00  0.00    +0.182 C 
ATOM      8  N   UNL     1      45.909  82.705  38.471  0.00  0.00    -0.249 NA
ATOM      9  C   UNL     1      47.228  82.337  38.853  0.00  0.00    +0.166 C 
ATOM     10  C   UNL     1      47.405  81.846  40.252  0.00  0.00    +0.219 C 
ATOM     11  O   UNL     1      47.025  82.814  41.203  0.00  0.00    -0.214 OA
ENDROOT
BRANCH   1  16
ATOM     12  C2* UNL     1      43.359  77.689  41.523  0.00  0.00    +0.089 C 
ATOM     13  C3* UNL     1      43.821  76.310  41.949  0.00  0.00    +0.186 C 
ATOM     14  C4* UNL     1      44.244  75.738  40.608  0.00  0.00    +0.180 C 
ATOM     15  O4* UNL     1      44.675  76.774  39.828  0.00  0.00    -0.332 OA
ATOM     16  C1* UNL     1      44.192  77.957  40.320  0.00  0.00    +0.209 C 
ATOM     17  O3* UNL     1      42.804  75.577  42.537  0.00  0.00    -0.220 OA
BRANCH  14  18
ATOM     18  C5* UNL     1      45.329  74.696  40.772  0.00  0.00    +0.214 C 
ATOM     19  O5* UNL     1      46.501  75.246  40.242  0.00  0.00    -0.218 OA
ENDBRANCH  14  18
ENDBRANCH   1  16
TORSDOF 2
