REMARK  Name = Pentolinium
REMARK  6 active torsions:
REMARK  status: ('A' for Active; 'I' for Inactive)
REMARK    1  A    between atoms: N_2  and  C_7
REMARK    2  A    between atoms: C_7  and  C_8
REMARK    3  A    between atoms: C_8  and  C_9
REMARK    4  A    between atoms: C_9  and  C_10
REMARK    5  A    between atoms: C_10  and  C_11
REMARK    6  A    between atoms: C_11  and  N_12
REMARK                            x       y       z     vdW  Elec       q    Type
REMARK                         _______ _______ _______ _____ _____    ______ ____
ROOT
ATOM      1  C   UNL     1      46.921  81.332  40.078  0.00  0.00    -0.004 C 
ENDROOT
BRANCH   1   2
ATOM      2  C   UNL     1      45.509  80.821  40.177  0.00  0.00    -0.022 C 
BRANCH   2   3
ATOM      3  C   UNL     1      44.862  80.533  38.856  0.00  0.00    -0.073 C 
BRANCH   3   5
ATOM      4  C   UNL     1      43.109  79.257  37.978  0.00  0.00    -0.096 C 
ATOM      5  N   UNL     1      44.082  79.302  39.044  0.00  0.00    +0.388 N 
ATOM      6  C   UNL     1      43.495  79.281  40.349  0.00  0.00    -0.073 C 
ATOM      7  C   UNL     1      43.178  77.817  40.605  0.00  0.00    -0.024 C 
ATOM      8  C   UNL     1      44.059  77.076  39.649  0.00  0.00    -0.024 C 
ATOM      9  C   UNL     1      44.932  78.138  39.016  0.00  0.00    -0.073 C 
ENDBRANCH   3   5
ENDBRANCH   2   3
ENDBRANCH   1   2
BRANCH   1  10
ATOM     10  C   UNL     1      47.510  81.646  41.437  0.00  0.00    -0.022 C 
BRANCH  10  11
ATOM     11  C   UNL     1      48.911  82.095  41.393  0.00  0.00    -0.073 C 
BRANCH  11  12
ATOM     12  N   UNL     1      49.458  82.767  42.498  0.00  0.00    +0.388 N 
ATOM     13  C   UNL     1      49.835  84.129  42.157  0.00  0.00    -0.073 C 
ATOM     14  C   UNL     1      49.420  85.028  43.266  0.00  0.00    -0.024 C 
ATOM     15  C   UNL     1      48.884  84.162  44.354  0.00  0.00    -0.024 C 
ATOM     16  C   UNL     1      48.711  82.837  43.690  0.00  0.00    -0.073 C 
ATOM     17  C   UNL     1      50.746  82.099  42.793  0.00  0.00    -0.096 C 
ENDBRANCH  11  12
ENDBRANCH  10  11
ENDBRANCH   1  10
TORSDOF 6
