REMARK  Name = Pentagastrin
REMARK  22 active torsions:
REMARK  status: ('A' for Active; 'I' for Inactive)
REMARK    1  A    between atoms: C_2  and  O_5
REMARK    2  A    between atoms: O_5  and  C_6
REMARK    3  A    between atoms: N_8  and  C_9
REMARK    4  A    between atoms: C_9  and  C_10
REMARK    5  A    between atoms: C_10  and  C_11
REMARK    6  A    between atoms: N_13  and  C_14
REMARK    7  A    between atoms: C_14  and  C_15
REMARK    8  A    between atoms: C_14  and  C_25
REMARK    9  A    between atoms: C_15  and  C_16
REMARK   10  A    between atoms: N_27  and  C_28
REMARK   11  A    between atoms: C_28  and  C_29
REMARK   12  A    between atoms: C_28  and  C_33
REMARK   13  A    between atoms: C_29  and  C_30
REMARK   14  A    between atoms: C_30  and  S_31
REMARK   15  A    between atoms: N_35  and  C_36
REMARK   16  A    between atoms: C_36  and  C_37
REMARK   17  A    between atoms: C_36  and  C_41
REMARK   18  A    between atoms: C_37  and  C_38
REMARK   19  A    between atoms: N_43  and  C_44
REMARK   20  A    between atoms: C_44  and  C_45
REMARK   21  A    between atoms: C_44  and  C_52
REMARK   22  A    between atoms: C_45  and  C_46
REMARK                            x       y       z     vdW  Elec       q    Type
REMARK                         _______ _______ _______ _____ _____    ______ ____
ROOT
ATOM      1  C   UNL     1      45.184  76.990  43.770  0.00  0.00    +0.262 C 
ATOM      2  O   UNL     1      45.530  75.799  44.015  0.00  0.00    -0.271 OA
ATOM      3  N   UNL     1      45.168  77.879  44.848  0.00  0.00    -0.196 NA
ENDROOT
BRANCH   3   4
ATOM      4  C   UNL     1      45.541  77.636  46.184  0.00  0.00    +0.174 C 
BRANCH   4   5
ATOM      5  C   UNL     1      44.978  76.507  46.909  0.00  0.00    +0.262 C 
ATOM      6  O   UNL     1      43.809  76.159  46.629  0.00  0.00    -0.271 OA
ATOM      7  N   UNL     1      45.674  75.805  47.896  0.00  0.00    -0.196 NA
BRANCH   7   8
ATOM      8  C   UNL     1      44.961  75.236  49.060  0.00  0.00    +0.184 C 
BRANCH   8   9
ATOM      9  C   UNL     1      45.066  76.169  50.209  0.00  0.00    +0.262 C 
ATOM     10  O   UNL     1      45.925  77.087  50.244  0.00  0.00    -0.271 OA
ATOM     11  N   UNL     1      44.170  76.006  51.295  0.00  0.00    -0.196 NA
BRANCH  11  12
ATOM     12  C   UNL     1      44.346  76.706  52.535  0.00  0.00    +0.179 C 
BRANCH  12  13
ATOM     13  C   UNL     1      43.231  76.537  53.493  0.00  0.00    +0.281 C 
ATOM     14  O   UNL     1      42.683  75.422  53.676  0.00  0.00    -0.270 OA
ATOM     15  N   UNL     1      42.745  77.662  54.247  0.00  0.00    -0.086 NA
ENDBRANCH  12  13
BRANCH  12  16
ATOM     16  C   UNL     1      45.638  76.254  53.231  0.00  0.00    +0.057 C 
BRANCH  16  17
ATOM     17  C   UNL     1      46.711  77.250  53.140  0.00  0.00    -0.020 A 
ATOM     18  C   UNL     1      46.591  78.558  53.539  0.00  0.00    -0.004 A 
ATOM     19  C   UNL     1      47.648  79.432  53.419  0.00  0.00    -0.000 A 
ATOM     20  C   UNL     1      48.848  79.003  52.894  0.00  0.00    -0.000 A 
ATOM     21  C   UNL     1      48.991  77.699  52.488  0.00  0.00    -0.000 A 
ATOM     22  C   UNL     1      47.936  76.824  52.607  0.00  0.00    -0.004 A 
ENDBRANCH  16  17
ENDBRANCH  12  16
ENDBRANCH  11  12
ENDBRANCH   8   9
BRANCH   8  23
ATOM     23  C   UNL     1      45.571  73.892  49.315  0.00  0.00    +0.145 C 
BRANCH  23  24
ATOM     24  C   UNL     1      45.021  72.853  48.432  0.00  0.00    +0.367 C 
ATOM     25  O   UNL     1      45.426  71.666  48.374  0.00  0.00    -0.246 OA
ATOM     26  O   UNL     1      43.957  73.176  47.569  0.00  0.00    -0.246 OA
ENDBRANCH  23  24
ENDBRANCH   8  23
ENDBRANCH   7   8
ENDBRANCH   4   5
BRANCH   4  27
ATOM     27  C   UNL     1      45.740  78.870  47.004  0.00  0.00    +0.043 C 
BRANCH  27  28
ATOM     28  C   UNL     1      47.018  79.586  46.879  0.00  0.00    +0.060 C 
BRANCH  28  29
ATOM     29  S   UNL     1      48.417  78.707  46.254  0.00  0.00    -0.139 S 
ATOM     30  C   UNL     1      49.902  79.723  46.044  0.00  0.00    +0.069 C 
ENDBRANCH  28  29
ENDBRANCH  27  28
ENDBRANCH   4  27
ENDBRANCH   3   4
BRANCH   1  31
ATOM     31  C   UNL     1      44.815  77.387  42.368  0.00  0.00    +0.177 C 
BRANCH  31  34
ATOM     32  C   UNL     1      43.251  76.765  40.488  0.00  0.00    +0.244 C 
ATOM     33  O   UNL     1      43.185  77.941  40.076  0.00  0.00    -0.273 OA
ATOM     34  N   UNL     1      44.008  76.478  41.672  0.00  0.00    -0.197 NA
BRANCH  32  35
ATOM     35  C   UNL     1      42.559  75.709  39.754  0.00  0.00    +0.110 C 
BRANCH  35  36
ATOM     36  C   UNL     1      41.318  76.122  39.057  0.00  0.00    +0.128 C 
BRANCH  36  39
ATOM     37  C   UNL     1      39.528  75.020  37.620  0.00  0.00    +0.421 C 
ATOM     38  O   UNL     1      39.053  76.144  37.276  0.00  0.00    -0.225 OA
ATOM     39  N   UNL     1      40.725  75.013  38.364  0.00  0.00    -0.168 NA
BRANCH  37  40
ATOM     40  O   UNL     1      38.846  73.869  37.245  0.00  0.00    -0.441 OA
BRANCH  40  42
ATOM     41  C   UNL     1      38.185  72.148  35.626  0.00  0.00    +0.044 C 
ATOM     42  C   UNL     1      38.950  73.395  35.908  0.00  0.00    +0.138 C 
ATOM     43  C   UNL     1      38.467  74.502  34.999  0.00  0.00    +0.044 C 
ATOM     44  C   UNL     1      40.422  73.181  35.564  0.00  0.00    +0.044 C 
ENDBRANCH  40  42
ENDBRANCH  37  40
ENDBRANCH  36  39
ENDBRANCH  35  36
ENDBRANCH  32  35
ENDBRANCH  31  34
BRANCH  31  45
ATOM     45  C   UNL     1      46.085  77.846  41.693  0.00  0.00    +0.059 C 
BRANCH  45  46
ATOM     46  C   UNL     1      45.916  78.980  40.764  0.00  0.00    +0.001 A 
ATOM     47  C   UNL     1      44.964  79.076  39.772  0.00  0.00    +0.095 A 
ATOM     48  N   UNL     1      45.143  80.249  39.148  0.00  0.00    -0.244 NA
ATOM     49  C   UNL     1      46.177  80.938  39.684  0.00  0.00    +0.081 A 
ATOM     50  C   UNL     1      46.743  82.176  39.404  0.00  0.00    +0.019 A 
ATOM     51  C   UNL     1      47.802  82.617  40.147  0.00  0.00    +0.002 A 
ATOM     52  C   UNL     1      48.331  81.865  41.174  0.00  0.00    +0.000 A 
ATOM     53  C   UNL     1      47.751  80.633  41.436  0.00  0.00    +0.001 A 
ATOM     54  C   UNL     1      46.684  80.153  40.712  0.00  0.00    +0.015 A 
ENDBRANCH  45  46
ENDBRANCH  31  45
ENDBRANCH   1  31
TORSDOF 22
