REMARK  Name = Pentaerythritol_tetranitrate
REMARK  12 active torsions:
REMARK  status: ('A' for Active; 'I' for Inactive)
REMARK    1  A    between atoms: C_1  and  C_2
REMARK    2  A    between atoms: C_1  and  O_18
REMARK    3  A    between atoms: C_2  and  C_3
REMARK    4  A    between atoms: C_2  and  C_8
REMARK    5  A    between atoms: C_2  and  C_13
REMARK    6  A    between atoms: C_3  and  O_4
REMARK    7  A    between atoms: O_4  and  N_5
REMARK    8  A    between atoms: C_8  and  O_9
REMARK    9  A    between atoms: O_9  and  N_10
REMARK   10  A    between atoms: C_13  and  O_14
REMARK   11  A    between atoms: O_14  and  N_15
REMARK   12  A    between atoms: O_18  and  N_19
REMARK                            x       y       z     vdW  Elec       q    Type
REMARK                         _______ _______ _______ _____ _____    ______ ____
ROOT
ATOM      1  C   UNL     1      47.845  80.735  41.421  0.00  0.00    +0.172 C 
ENDROOT
BRANCH   1   2
ATOM      2  C   UNL     1      47.554  80.660  39.941  0.00  0.00    +0.254 C 
BRANCH   2   3
ATOM      3  O   UNL     1      46.837  81.828  39.597  0.00  0.00    -0.335 OA
BRANCH   3   4
ATOM      4  N   UNL     1      46.282  82.062  38.390  0.00  0.00    +0.218 N 
ATOM      5  O   UNL     1      45.498  81.237  37.899  0.00  0.00    -0.090 OA
ATOM      6  O   UNL     1      46.563  83.197  37.685  0.00  0.00    -0.090 OA
ENDBRANCH   3   4
ENDBRANCH   2   3
ENDBRANCH   1   2
BRANCH   1   7
ATOM      7  C   UNL     1      47.523  82.081  42.010  0.00  0.00    +0.254 C 
BRANCH   7   8
ATOM      8  O   UNL     1      48.439  82.369  43.020  0.00  0.00    -0.335 OA
BRANCH   8   9
ATOM      9  N   UNL     1      48.637  83.577  43.602  0.00  0.00    +0.218 N 
ATOM     10  O   UNL     1      49.800  83.996  43.732  0.00  0.00    -0.090 OA
ATOM     11  O   UNL     1      47.620  84.372  44.059  0.00  0.00    -0.090 OA
ENDBRANCH   8   9
ENDBRANCH   7   8
ENDBRANCH   1   7
BRANCH   1  12
ATOM     12  C   UNL     1      46.959  79.717  42.106  0.00  0.00    +0.254 C 
BRANCH  12  13
ATOM     13  O   UNL     1      45.968  79.213  41.230  0.00  0.00    -0.335 OA
BRANCH  13  14
ATOM     14  N   UNL     1      45.019  78.325  41.566  0.00  0.00    +0.218 N 
ATOM     15  O   UNL     1      45.132  77.626  42.585  0.00  0.00    -0.090 OA
ATOM     16  O   UNL     1      43.903  78.171  40.792  0.00  0.00    -0.090 OA
ENDBRANCH  13  14
ENDBRANCH  12  13
ENDBRANCH   1  12
BRANCH   1  17
ATOM     17  C   UNL     1      49.304  80.460  41.625  0.00  0.00    +0.254 C 
BRANCH  17  18
ATOM     18  O   UNL     1      49.549  79.120  41.258  0.00  0.00    -0.335 OA
BRANCH  18  19
ATOM     19  N   UNL     1      50.781  78.583  41.091  0.00  0.00    +0.218 N 
ATOM     20  O   UNL     1      50.901  77.527  40.447  0.00  0.00    -0.090 OA
ATOM     21  O   UNL     1      51.907  79.169  41.610  0.00  0.00    -0.090 OA
ENDBRANCH  18  19
ENDBRANCH  17  18
ENDBRANCH   1  17
TORSDOF 12
