REMARK  Name = Pentamidine
REMARK  10 active torsions:
REMARK  status: ('A' for Active; 'I' for Inactive)
REMARK    1  A    between atoms: C_3  and  O_10
REMARK    2  A    between atoms: C_6  and  C_7
REMARK    3  A    between atoms: O_10  and  C_11
REMARK    4  A    between atoms: C_11  and  C_12
REMARK    5  A    between atoms: C_12  and  C_13
REMARK    6  A    between atoms: C_13  and  C_14
REMARK    7  A    between atoms: C_14  and  C_15
REMARK    8  A    between atoms: C_15  and  O_16
REMARK    9  A    between atoms: O_16  and  C_17
REMARK   10  A    between atoms: C_20  and  C_23
REMARK                            x       y       z     vdW  Elec       q    Type
REMARK                         _______ _______ _______ _____ _____    ______ ____
ROOT
ATOM      1  C   UNL     1      45.307  78.850  40.113  0.00  0.00    +0.008 C 
ENDROOT
BRANCH   1   2
ATOM      2  C   UNL     1      45.142  80.151  40.826  0.00  0.00    +0.047 C 
BRANCH   2   3
ATOM      3  C   UNL     1      46.378  80.382  41.697  0.00  0.00    +0.205 C 
BRANCH   3   4
ATOM      4  O   UNL     1      47.134  81.354  41.048  0.00  0.00    -0.475 OA
BRANCH   4   7
ATOM      5  C   UNL     1      48.977  83.597  43.324  0.00  0.00    +0.006 A 
ATOM      6  C   UNL     1      47.964  82.862  42.751  0.00  0.00    +0.037 A 
ATOM      7  C   UNL     1      48.171  82.086  41.606  0.00  0.00    +0.139 A 
ATOM      8  C   UNL     1      49.446  82.101  41.088  0.00  0.00    +0.037 A 
ATOM      9  C   UNL     1      50.459  82.840  41.666  0.00  0.00    +0.006 A 
ATOM     10  C   UNL     1      50.254  83.607  42.798  0.00  0.00    +0.039 A 
BRANCH  10  11
ATOM     11  C   UNL     1      51.335  84.379  43.388  0.00  0.00    +0.205 C 
ATOM     12  N   UNL     1      51.105  85.054  44.445  0.00  0.00    -0.125 NA
ATOM     13  N   UNL     1      52.629  84.395  42.819  0.00  0.00    -0.125 NA
ENDBRANCH  10  11
ENDBRANCH   4   7
ENDBRANCH   3   4
ENDBRANCH   2   3
ENDBRANCH   1   2
BRANCH   1  14
ATOM     14  C   UNL     1      45.205  77.655  41.048  0.00  0.00    +0.047 C 
BRANCH  14  15
ATOM     15  C   UNL     1      44.001  76.820  40.748  0.00  0.00    +0.205 C 
BRANCH  15  16
ATOM     16  O   UNL     1      43.118  77.476  39.918  0.00  0.00    -0.475 OA
BRANCH  16  17
ATOM     17  C   UNL     1      42.135  76.936  39.172  0.00  0.00    +0.139 A 
ATOM     18  C   UNL     1      41.624  75.702  39.362  0.00  0.00    +0.037 A 
ATOM     19  C   UNL     1      40.606  75.217  38.535  0.00  0.00    +0.006 A 
ATOM     20  C   UNL     1      40.086  75.978  37.500  0.00  0.00    +0.039 A 
ATOM     21  C   UNL     1      40.614  77.241  37.313  0.00  0.00    +0.006 A 
ATOM     22  C   UNL     1      41.612  77.719  38.121  0.00  0.00    +0.037 A 
BRANCH  20  23
ATOM     23  C   UNL     1      39.035  75.421  36.691  0.00  0.00    +0.205 C 
ATOM     24  N   UNL     1      38.043  74.752  37.189  0.00  0.00    -0.125 NA
ATOM     25  N   UNL     1      39.062  75.591  35.281  0.00  0.00    -0.125 NA
ENDBRANCH  20  23
ENDBRANCH  16  17
ENDBRANCH  15  16
ENDBRANCH  14  15
ENDBRANCH   1  14
TORSDOF 10
