REMARK  Name = Pentobarbital
REMARK  4 active torsions:
REMARK  status: ('A' for Active; 'I' for Inactive)
REMARK    1  A    between atoms: C_2  and  C_3
REMARK    2  A    between atoms: C_3  and  C_4
REMARK    3  A    between atoms: C_4  and  C_6
REMARK    4  A    between atoms: C_6  and  C_15
REMARK                            x       y       z     vdW  Elec       q    Type
REMARK                         _______ _______ _______ _____ _____    ______ ____
ROOT
ATOM      1  C   UNL     1      47.493  81.235  41.293  0.00  0.00    +0.141 C 
ATOM      2  C   UNL     1      48.135  81.731  40.059  0.00  0.00    +0.257 C 
ATOM      3  O   UNL     1      49.383  81.856  40.030  0.00  0.00    -0.272 OA
ATOM      4  N   UNL     1      47.419  82.080  38.882  0.00  0.00    -0.125 NA
ATOM      5  C   UNL     1      46.013  81.917  38.821  0.00  0.00    +0.352 C 
ATOM      6  O   UNL     1      45.455  82.250  37.737  0.00  0.00    -0.248 OA
ATOM      7  N   UNL     1      45.322  81.410  39.929  0.00  0.00    -0.125 NA
ATOM      8  C   UNL     1      46.020  81.064  41.101  0.00  0.00    +0.257 C 
ATOM      9  O   UNL     1      45.379  80.573  42.065  0.00  0.00    -0.272 OA
ENDROOT
BRANCH   1  10
ATOM     10  C   UNL     1      47.787  82.041  42.517  0.00  0.00    +0.017 C 
ATOM     11  C   UNL     1      49.271  81.785  42.876  0.00  0.00    +0.001 C 
BRANCH  10  12
ATOM     12  C   UNL     1      47.677  83.505  42.398  0.00  0.00    +0.001 C 
BRANCH  12  14
ATOM     13  C   UNL     1      48.859  85.199  43.836  0.00  0.00    +0.000 C 
ATOM     14  C   UNL     1      47.634  84.379  43.567  0.00  0.00    +0.000 C 
ENDBRANCH  12  14
ENDBRANCH  10  12
ENDBRANCH   1  10
BRANCH   1  15
ATOM     15  C   UNL     1      47.985  79.777  41.456  0.00  0.00    +0.018 C 
ATOM     16  C   UNL     1      47.636  78.997  40.194  0.00  0.00    +0.001 C 
ENDBRANCH   1  15
TORSDOF 4
