REMARK  Name = Pentosan_Polysulfate
REMARK  10 active torsions:
REMARK  status: ('A' for Active; 'I' for Inactive)
REMARK    1  A    between atoms: C_3  and  O_30
REMARK    2  A    between atoms: C_4  and  O_25
REMARK    3  A    between atoms: C_5  and  O_7
REMARK    4  A    between atoms: O_7  and  C_8
REMARK    5  A    between atoms: C_12  and  O_19
REMARK    6  A    between atoms: C_13  and  O_14
REMARK    7  A    between atoms: O_14  and  S_15
REMARK    8  A    between atoms: O_19  and  S_20
REMARK    9  A    between atoms: O_25  and  S_26
REMARK   10  A    between atoms: O_30  and  S_31
REMARK                            x       y       z     vdW  Elec       q    Type
REMARK                         _______ _______ _______ _____ _____    ______ ____
ROOT
ATOM      1  O   UNL     1      47.133  81.068  41.135  0.00  0.00    -0.326 OA
ENDROOT
BRANCH   1   6
ATOM      2  C   UNL     1      47.781  84.061  42.702  0.00  0.00    +0.180 C 
ATOM      3  C   UNL     1      48.526  83.438  43.852  0.00  0.00    +0.214 C 
ATOM      4  C   UNL     1      49.676  82.591  43.340  0.00  0.00    +0.215 C 
ATOM      5  C   UNL     1      49.108  81.467  42.468  0.00  0.00    +0.235 C 
ATOM      6  C   UNL     1      47.717  81.896  42.055  0.00  0.00    +0.269 C 
ATOM      7  O   UNL     1      47.700  83.213  41.601  0.00  0.00    -0.326 OA
ATOM      8  O   UNL     1      49.086  84.500  44.589  0.00  0.00    -0.218 OA
BRANCH   5   9
ATOM      9  O   UNL     1      49.886  81.401  41.323  0.00  0.00    -0.195 OA
BRANCH   9  10
ATOM     10  S   UNL     1      50.764  79.995  41.194  0.00  0.00    +0.239 S 
ATOM     11  O   UNL     1      50.312  79.276  39.953  0.00  0.00    -0.116 OA
ATOM     12  O   UNL     1      50.431  79.117  42.366  0.00  0.00    -0.116 OA
ATOM     13  O   UNL     1      52.408  80.262  41.113  0.00  0.00    -0.022 OA
ENDBRANCH   9  10
ENDBRANCH   5   9
BRANCH   4  14
ATOM     14  O   UNL     1      50.520  83.381  42.608  0.00  0.00    -0.197 OA
BRANCH  14  15
ATOM     15  S   UNL     1      51.777  84.032  43.459  0.00  0.00    +0.239 S 
ATOM     16  O   UNL     1      52.853  84.433  42.473  0.00  0.00    -0.116 OA
ATOM     17  O   UNL     1      51.360  85.276  44.179  0.00  0.00    -0.116 OA
ATOM     18  O   UNL     1      52.452  82.982  44.567  0.00  0.00    -0.022 OA
ENDBRANCH  14  15
ENDBRANCH   4  14
ENDBRANCH   1   6
BRANCH   1  19
ATOM     19  C   UNL     1      45.771  81.283  40.957  0.00  0.00    +0.180 C 
ATOM     20  C   UNL     1      45.603  82.249  39.823  0.00  0.00    +0.177 C 
ATOM     21  O   UNL     1      44.216  82.290  39.545  0.00  0.00    -0.324 OA
ATOM     22  C   UNL     1      43.981  81.156  38.770  0.00  0.00    +0.302 C 
ATOM     23  C   UNL     1      44.290  79.873  39.484  0.00  0.00    +0.238 C 
ATOM     24  C   UNL     1      44.965  80.052  40.808  0.00  0.00    +0.212 C 
ATOM     25  O   UNL     1      44.806  81.299  37.630  0.00  0.00    -0.187 OA
BRANCH  24  26
ATOM     26  O   UNL     1      44.035  79.912  41.853  0.00  0.00    -0.197 OA
BRANCH  26  27
ATOM     27  S   UNL     1      44.097  78.425  42.582  0.00  0.00    +0.239 S 
ATOM     28  O   UNL     1      42.752  77.756  42.381  0.00  0.00    -0.116 OA
ATOM     29  O   UNL     1      45.115  77.505  41.961  0.00  0.00    -0.116 OA
ATOM     30  O   UNL     1      44.417  78.604  44.230  0.00  0.00    -0.022 OA
ENDBRANCH  26  27
ENDBRANCH  24  26
BRANCH  23  31
ATOM     31  O   UNL     1      45.020  79.072  38.612  0.00  0.00    -0.195 OA
BRANCH  31  32
ATOM     32  S   UNL     1      44.106  77.763  38.097  0.00  0.00    +0.239 S 
ATOM     33  O   UNL     1      43.311  77.186  39.256  0.00  0.00    -0.116 OA
ATOM     34  O   UNL     1      43.145  78.155  37.017  0.00  0.00    -0.116 OA
ATOM     35  O   UNL     1      45.098  76.514  37.542  0.00  0.00    -0.022 OA
ENDBRANCH  31  32
ENDBRANCH  23  31
ENDBRANCH   1  19
TORSDOF 10
