REMARK  Name = Pentazocine
REMARK  2 active torsions:
REMARK  status: ('A' for Active; 'I' for Inactive)
REMARK    1  A    between atoms: N_10  and  C_11
REMARK    2  A    between atoms: C_11  and  C_12
REMARK                            x       y       z     vdW  Elec       q    Type
REMARK                         _______ _______ _______ _____ _____    ______ ____
ROOT
ATOM      1  C   UNL     1      45.667  80.709  42.963  0.00  0.00    +0.002 C 
ATOM      2  C   UNL     1      47.039  80.193  42.655  0.00  0.00    +0.019 C 
ATOM      3  C   UNL     1      48.023  81.346  42.581  0.00  0.00    +0.062 C 
ATOM      4  C   UNL     1      47.566  82.380  41.575  0.00  0.00    +0.042 C 
ATOM      5  C   UNL     1      46.756  81.791  40.486  0.00  0.00    -0.025 A 
ATOM      6  C   UNL     1      46.492  80.454  40.325  0.00  0.00    -0.023 A 
ATOM      7  C   UNL     1      47.069  79.499  41.322  0.00  0.00    +0.021 C 
ATOM      8  C   UNL     1      48.426  79.093  40.849  0.00  0.00    +0.021 C 
ATOM      9  C   UNL     1      49.573  79.883  41.391  0.00  0.00    +0.073 C 
ATOM     10  N   UNL     1      49.295  80.834  42.350  0.00  0.00    -0.270 NA
ATOM     11  C   UNL     1      46.161  78.284  41.458  0.00  0.00    +0.004 C 
ATOM     12  C   UNL     1      45.720  79.989  39.273  0.00  0.00    +0.037 A 
ATOM     13  C   UNL     1      45.214  80.893  38.380  0.00  0.00    +0.195 A 
ATOM     14  C   UNL     1      45.477  82.241  38.537  0.00  0.00    +0.042 A 
ATOM     15  C   UNL     1      46.242  82.717  39.576  0.00  0.00    -0.001 A 
ATOM     16  O   UNL     1      44.429  80.433  37.311  0.00  0.00    -0.287 OA
ENDROOT
BRANCH  10  17
ATOM     17  C   UNL     1      50.269  81.150  43.325  0.00  0.00    +0.098 C 
BRANCH  17  18
ATOM     18  C   UNL     1      50.066  82.506  43.925  0.00  0.00    -0.017 C 
ATOM     19  C   UNL     1      50.529  83.599  43.343  0.00  0.00    -0.047 C 
ATOM     20  C   UNL     1      51.757  83.480  42.493  0.00  0.00    +0.026 C 
ATOM     21  C   UNL     1      49.897  84.923  43.488  0.00  0.00    +0.026 C 
ENDBRANCH  17  18
ENDBRANCH  10  17
TORSDOF 2
