REMARK  Name = Pentoxifylline
REMARK  5 active torsions:
REMARK  status: ('A' for Active; 'I' for Inactive)
REMARK    1  A    between atoms: C_2  and  C_4
REMARK    2  A    between atoms: C_4  and  C_5
REMARK    3  A    between atoms: C_5  and  C_6
REMARK    4  A    between atoms: C_6  and  C_7
REMARK    5  A    between atoms: C_7  and  N_8
REMARK                            x       y       z     vdW  Elec       q    Type
REMARK                         _______ _______ _______ _____ _____    ______ ____
ROOT
ATOM      1  N   UNL     1      47.425  81.110  41.317  0.00  0.00    -0.247 N 
ATOM      2  C   UNL     1      46.392  80.278  40.980  0.00  0.00    +0.283 A 
ATOM      3  O   UNL     1      46.138  79.279  41.698  0.00  0.00    -0.265 OA
ATOM      4  C   UNL     1      45.596  80.477  39.874  0.00  0.00    +0.153 A 
ATOM      5  C   UNL     1      45.904  81.588  39.106  0.00  0.00    +0.170 A 
ATOM      6  N   UNL     1      44.995  81.570  38.089  0.00  0.00    -0.206 NA
ATOM      7  C   UNL     1      44.198  80.503  38.257  0.00  0.00    +0.180 A 
ATOM      8  N   UNL     1      44.547  79.809  39.354  0.00  0.00    -0.302 N 
ATOM      9  C   UNL     1      43.942  78.596  39.887  0.00  0.00    +0.132 C 
ATOM     10  N   UNL     1      46.911  82.413  39.421  0.00  0.00    -0.263 N 
ATOM     11  C   UNL     1      47.649  82.150  40.526  0.00  0.00    +0.335 A 
ATOM     12  O   UNL     1      48.568  82.980  40.741  0.00  0.00    -0.246 OA
ATOM     13  C   UNL     1      47.200  83.563  38.591  0.00  0.00    +0.137 C 
ENDROOT
BRANCH   1  14
ATOM     14  C   UNL     1      48.175  80.819  42.501  0.00  0.00    +0.114 C 
BRANCH  14  15
ATOM     15  C   UNL     1      49.093  81.868  42.989  0.00  0.00    +0.025 C 
BRANCH  15  16
ATOM     16  C   UNL     1      48.565  83.207  43.313  0.00  0.00    +0.010 C 
BRANCH  16  17
ATOM     17  C   UNL     1      49.183  83.841  44.523  0.00  0.00    +0.065 C 
BRANCH  17  19
ATOM     18  C   UNL     1      50.544  85.875  43.636  0.00  0.00    +0.072 C 
ATOM     19  C   UNL     1      50.480  84.470  44.120  0.00  0.00    +0.151 C 
ATOM     20  O   UNL     1      51.498  83.837  44.184  0.00  0.00    -0.296 OA
ENDBRANCH  17  19
ENDBRANCH  16  17
ENDBRANCH  15  16
ENDBRANCH  14  15
ENDBRANCH   1  14
TORSDOF 5
