REMARK  Name = Perazine
REMARK  4 active torsions:
REMARK  status: ('A' for Active; 'I' for Inactive)
REMARK    1  A    between atoms: N_5  and  C_8
REMARK    2  A    between atoms: C_8  and  C_9
REMARK    3  A    between atoms: C_9  and  C_10
REMARK    4  A    between atoms: C_10  and  N_11
REMARK                            x       y       z     vdW  Elec       q    Type
REMARK                         _______ _______ _______ _____ _____    ______ ____
ROOT
ATOM      1  N   UNL     1      44.550  79.177  39.424  0.00  0.00    -0.286 N 
ATOM      2  C   UNL     1      45.401  80.324  39.454  0.00  0.00    +0.058 A 
ATOM      3  C   UNL     1      45.413  81.140  38.326  0.00  0.00    +0.015 A 
ATOM      4  C   UNL     1      46.227  82.284  38.288  0.00  0.00    +0.001 A 
ATOM      5  C   UNL     1      47.004  82.588  39.366  0.00  0.00    +0.001 A 
ATOM      6  C   UNL     1      46.976  81.774  40.462  0.00  0.00    +0.008 A 
ATOM      7  C   UNL     1      46.204  80.682  40.507  0.00  0.00    +0.043 A 
ATOM      8  S   UNL     1      46.225  79.698  41.977  0.00  0.00    -0.084 S 
ATOM      9  C   UNL     1      45.111  78.344  41.699  0.00  0.00    +0.043 A 
ATOM     10  C   UNL     1      44.988  77.438  42.702  0.00  0.00    +0.008 A 
ATOM     11  C   UNL     1      44.165  76.355  42.583  0.00  0.00    +0.001 A 
ATOM     12  C   UNL     1      43.467  76.209  41.421  0.00  0.00    +0.001 A 
ATOM     13  C   UNL     1      43.603  77.137  40.413  0.00  0.00    +0.015 A 
ATOM     14  C   UNL     1      44.439  78.253  40.514  0.00  0.00    +0.058 A 
ENDROOT
BRANCH   1  15
ATOM     15  C   UNL     1      43.748  78.861  38.231  0.00  0.00    +0.097 C 
BRANCH  15  16
ATOM     16  C   UNL     1      42.309  78.882  38.694  0.00  0.00    +0.039 C 
BRANCH  16  17
ATOM     17  C   UNL     1      41.328  78.638  37.583  0.00  0.00    +0.074 C 
BRANCH  17  22
ATOM     18  C   UNL     1      37.359  74.831  37.529  0.00  0.00    +0.090 C 
ATOM     19  N   UNL     1      38.183  75.945  37.124  0.00  0.00    -0.269 NA
ATOM     20  C   UNL     1      38.092  77.006  38.126  0.00  0.00    +0.090 C 
ATOM     21  C   UNL     1      39.010  78.115  37.625  0.00  0.00    +0.090 C 
ATOM     22  N   UNL     1      40.360  77.624  37.831  0.00  0.00    -0.270 NA
ATOM     23  C   UNL     1      40.552  76.578  36.823  0.00  0.00    +0.090 C 
ATOM     24  C   UNL     1      39.529  75.483  36.965  0.00  0.00    +0.090 C 
ENDBRANCH  17  22
ENDBRANCH  16  17
ENDBRANCH  15  16
ENDBRANCH   1  15
TORSDOF 4
