REMARK  Name = Peramivir
REMARK  7 active torsions:
REMARK  status: ('A' for Active; 'I' for Inactive)
REMARK    1  A    between atoms: C_2  and  C_3
REMARK    2  A    between atoms: C_3  and  C_4
REMARK    3  A    between atoms: C_3  and  C_6
REMARK    4  A    between atoms: C_6  and  C_7
REMARK    5  A    between atoms: C_6  and  N_20
REMARK    6  A    between atoms: C_8  and  N_16
REMARK    7  A    between atoms: C_10  and  C_13
REMARK                            x       y       z     vdW  Elec       q    Type
REMARK                         _______ _______ _______ _____ _____    ______ ____
ROOT
ATOM      1  C   UNL     1      47.554  81.420  41.007  0.00  0.00    +0.073 C 
ATOM      2  C   UNL     1      46.848  80.093  41.290  0.00  0.00    +0.111 C 
ATOM      3  C   UNL     1      45.827  80.078  40.187  0.00  0.00    +0.038 C 
ATOM      4  C   UNL     1      45.392  81.519  40.131  0.00  0.00    +0.136 C 
ATOM      5  C   UNL     1      46.300  82.265  41.117  0.00  0.00    +0.166 C 
ATOM      6  O   UNL     1      46.337  83.542  40.716  0.00  0.00    -0.222 OA
ENDROOT
BRANCH   2   7
ATOM      7  N   UNL     1      47.637  78.953  41.400  0.00  0.00    -0.236 NA
ATOM      8  C   UNL     1      47.132  77.772  41.397  0.00  0.00    +0.284 C 
ATOM      9  N   UNL     1      45.743  77.632  41.167  0.00  0.00    -0.104 NA
ATOM     10  N   UNL     1      47.897  76.593  41.615  0.00  0.00    -0.104 NA
ENDBRANCH   2   7
BRANCH   4  11
ATOM     11  C   UNL     1      45.605  82.001  38.750  0.00  0.00    +0.367 C 
ATOM     12  O   UNL     1      44.950  81.574  37.776  0.00  0.00    -0.246 OA
ATOM     13  O   UNL     1      46.569  82.963  38.532  0.00  0.00    -0.246 OA
ENDBRANCH   4  11
BRANCH   1  14
ATOM     14  C   UNL     1      48.584  81.779  42.056  0.00  0.00    +0.100 C 
BRANCH  14  15
ATOM     15  N   UNL     1      48.109  81.467  43.386  0.00  0.00    -0.207 NA
ATOM     16  C   UNL     1      48.706  80.522  44.263  0.00  0.00    +0.242 C 
ATOM     17  O   UNL     1      49.615  79.820  43.802  0.00  0.00    -0.273 OA
ATOM     18  C   UNL     1      48.304  80.335  45.677  0.00  0.00    +0.096 C 
ENDBRANCH  14  15
BRANCH  14  19
ATOM     19  C   UNL     1      49.351  82.995  41.869  0.00  0.00    +0.020 C 
BRANCH  19  21
ATOM     20  C   UNL     1      51.671  81.961  42.134  0.00  0.00    +0.000 C 
ATOM     21  C   UNL     1      50.696  82.908  42.687  0.00  0.00    +0.002 C 
ENDBRANCH  19  21
BRANCH  19  22
ATOM     22  C   UNL     1      48.924  84.359  42.138  0.00  0.00    +0.002 C 
ATOM     23  C   UNL     1      47.821  84.705  43.050  0.00  0.00    +0.000 C 
ENDBRANCH  19  22
ENDBRANCH  14  19
ENDBRANCH   1  14
TORSDOF 7
