REMARK  Name = Perchlozone
REMARK  3 active torsions:
REMARK  status: ('A' for Active; 'I' for Inactive)
REMARK    1  A    between atoms: C_6  and  C_7
REMARK    2  A    between atoms: N_8  and  N_9
REMARK    3  A    between atoms: N_9  and  C_10
REMARK                            x       y       z     vdW  Elec       q    Type
REMARK                         _______ _______ _______ _____ _____    ______ ____
ROOT
ATOM      1  C   UNL     1      45.623  80.489  40.007  0.00  0.00    +0.022 A 
ATOM      2  C   UNL     1      44.839  80.888  38.956  0.00  0.00    +0.099 A 
ATOM      3  N   UNL     1      45.095  82.047  38.349  0.00  0.00    -0.242 NA
ATOM      4  C   UNL     1      46.089  82.853  38.715  0.00  0.00    +0.099 A 
ATOM      5  C   UNL     1      46.889  82.471  39.767  0.00  0.00    +0.022 A 
ATOM      6  C   UNL     1      46.666  81.289  40.423  0.00  0.00    +0.024 A 
ENDROOT
BRANCH   6   7
ATOM      7  C   UNL     1      47.519  80.900  41.532  0.00  0.00    +0.120 C 
ATOM      8  N   UNL     1      48.483  81.653  41.883  0.00  0.00    -0.155 NA
BRANCH   8   9
ATOM      9  N   UNL     1      49.359  81.308  42.920  0.00  0.00    -0.091 NA
BRANCH   9  10
ATOM     10  C   UNL     1      50.728  81.635  42.807  0.00  0.00    +0.215 C 
ATOM     11  S   UNL     1      51.745  81.197  44.006  0.00  0.00    -0.012 S 
ATOM     12  N   UNL     1      51.178  82.335  41.655  0.00  0.00    -0.100 NA
ENDBRANCH   9  10
ENDBRANCH   8   9
ENDBRANCH   6   7
TORSDOF 3
