REMARK  Name = Pergolide
REMARK  4 active torsions:
REMARK  status: ('A' for Active; 'I' for Inactive)
REMARK    1  A    between atoms: C_2  and  C_3
REMARK    2  A    between atoms: C_3  and  N_4
REMARK    3  A    between atoms: C_6  and  C_20
REMARK    4  A    between atoms: C_20  and  S_21
REMARK                            x       y       z     vdW  Elec       q    Type
REMARK                         _______ _______ _______ _____ _____    ______ ____
ROOT
ATOM      1  N   UNL     1      49.514  82.629  41.797  0.00  0.00    -0.273 NA
ATOM      2  C   UNL     1      50.267  81.786  42.668  0.00  0.00    +0.073 C 
ATOM      3  C   UNL     1      49.435  80.990  43.624  0.00  0.00    +0.027 C 
ATOM      4  C   UNL     1      48.467  80.153  42.776  0.00  0.00    +0.008 C 
ATOM      5  C   UNL     1      47.588  81.087  42.027  0.00  0.00    +0.037 C 
ATOM      6  C   UNL     1      48.402  82.040  41.179  0.00  0.00    +0.066 C 
ATOM      7  C   UNL     1      47.450  83.027  40.549  0.00  0.00    +0.044 C 
ATOM      8  C   UNL     1      46.557  82.266  39.620  0.00  0.00    -0.001 A 
ATOM      9  C   UNL     1      45.898  82.495  38.435  0.00  0.00    +0.095 A 
ATOM     10  N   UNL     1      45.244  81.355  38.093  0.00  0.00    -0.244 NA
ATOM     11  C   UNL     1      45.465  80.407  39.024  0.00  0.00    +0.081 A 
ATOM     12  C   UNL     1      45.090  79.099  39.221  0.00  0.00    +0.019 A 
ATOM     13  C   UNL     1      45.529  78.407  40.338  0.00  0.00    +0.001 A 
ATOM     14  C   UNL     1      46.356  79.008  41.285  0.00  0.00    -0.004 A 
ATOM     15  C   UNL     1      46.723  80.317  41.074  0.00  0.00    -0.020 A 
ATOM     16  C   UNL     1      46.273  80.984  39.953  0.00  0.00    +0.011 A 
ENDROOT
BRANCH   1  17
ATOM     17  C   UNL     1      49.473  83.993  42.156  0.00  0.00    +0.072 C 
BRANCH  17  19
ATOM     18  C   UNL     1      48.253  85.762  43.459  0.00  0.00    +0.001 C 
ATOM     19  C   UNL     1      48.382  84.290  43.197  0.00  0.00    +0.017 C 
ENDBRANCH  17  19
ENDBRANCH   1  17
BRANCH   3  20
ATOM     20  C   UNL     1      50.326  80.007  44.350  0.00  0.00    +0.059 C 
BRANCH  20  21
ATOM     21  S   UNL     1      51.447  80.861  45.492  0.00  0.00    -0.139 S 
ATOM     22  C   UNL     1      50.673  80.915  47.128  0.00  0.00    +0.069 C 
ENDBRANCH  20  21
ENDBRANCH   3  20
TORSDOF 4
