REMARK  Name = Permethrin
REMARK  7 active torsions:
REMARK  status: ('A' for Active; 'I' for Inactive)
REMARK    1  A    between atoms: C_3  and  C_22
REMARK    2  A    between atoms: C_4  and  C_5
REMARK    3  A    between atoms: C_5  and  O_7
REMARK    4  A    between atoms: O_7  and  C_8
REMARK    5  A    between atoms: C_8  and  C_9
REMARK    6  A    between atoms: C_11  and  O_15
REMARK    7  A    between atoms: O_15  and  C_16
REMARK                            x       y       z     vdW  Elec       q    Type
REMARK                         _______ _______ _______ _____ _____    ______ ____
ROOT
ATOM      1  C   UNL     1      47.016  79.428  40.711  0.00  0.00    +0.235 C 
ENDROOT
BRANCH   1   2
ATOM      2  C   UNL     1      45.979  78.579  41.281  0.00  0.00    +0.024 A 
ATOM      3  C   UNL     1      45.141  77.837  40.488  0.00  0.00    +0.037 A 
ATOM      4  C   UNL     1      44.155  77.014  41.059  0.00  0.00    +0.145 A 
ATOM      5  C   UNL     1      44.026  76.950  42.430  0.00  0.00    +0.037 A 
ATOM      6  C   UNL     1      44.860  77.690  43.231  0.00  0.00    +0.003 A 
ATOM      7  C   UNL     1      45.829  78.497  42.645  0.00  0.00    -0.000 A 
BRANCH   4   8
ATOM      8  O   UNL     1      43.309  76.265  40.256  0.00  0.00    -0.454 OA
BRANCH   8   9
ATOM      9  C   UNL     1      42.452  76.833  39.337  0.00  0.00    +0.145 A 
ATOM     10  C   UNL     1      41.768  76.087  38.392  0.00  0.00    +0.037 A 
ATOM     11  C   UNL     1      40.926  76.706  37.500  0.00  0.00    +0.003 A 
ATOM     12  C   UNL     1      40.722  78.069  37.499  0.00  0.00    +0.000 A 
ATOM     13  C   UNL     1      41.393  78.818  38.428  0.00  0.00    +0.003 A 
ATOM     14  C   UNL     1      42.239  78.203  39.326  0.00  0.00    +0.037 A 
ENDBRANCH   8   9
ENDBRANCH   4   8
ENDBRANCH   1   2
BRANCH   1  15
ATOM     15  O   UNL     1      47.133  80.715  41.262  0.00  0.00    -0.443 OA
BRANCH  15  16
ATOM     16  C   UNL     1      48.088  81.664  40.974  0.00  0.00    +0.317 C 
ATOM     17  O   UNL     1      49.109  81.296  40.346  0.00  0.00    -0.250 OA
BRANCH  16  21
ATOM     18  C   UNL     1      48.175  82.552  43.874  0.00  0.00    +0.001 C 
ATOM     19  C   UNL     1      48.131  83.543  42.754  0.00  0.00    +0.015 C 
ATOM     20  C   UNL     1      49.296  83.743  41.792  0.00  0.00    +0.035 C 
ATOM     21  C   UNL     1      47.968  83.091  41.368  0.00  0.00    +0.103 C 
ATOM     22  C   UNL     1      47.489  84.865  43.158  0.00  0.00    +0.001 C 
BRANCH  20  23
ATOM     23  C   UNL     1      50.491  82.931  42.024  0.00  0.00    -0.003 C 
ATOM     24  C   UNL     1      51.742  83.311  41.883  0.00  0.00    +0.111 C 
ATOM     25 CL   UNL     1      52.133  84.786  41.067  0.00  0.00    -0.070 Cl
ATOM     26 CL   UNL     1      53.063  82.346  42.513  0.00  0.00    -0.070 Cl
ENDBRANCH  20  23
ENDBRANCH  16  21
ENDBRANCH  15  16
ENDBRANCH   1  15
TORSDOF 7
