REMARK  Name = Perospirone
REMARK  5 active torsions:
REMARK  status: ('A' for Active; 'I' for Inactive)
REMARK    1  A    between atoms: N_9  and  C_12
REMARK    2  A    between atoms: C_12  and  C_13
REMARK    3  A    between atoms: C_13  and  C_14
REMARK    4  A    between atoms: C_14  and  C_15
REMARK    5  A    between atoms: C_15  and  N_16
REMARK                            x       y       z     vdW  Elec       q    Type
REMARK                         _______ _______ _______ _____ _____    ______ ____
ROOT
ATOM      1  C   UNL     1      45.793  79.526  39.001  0.00  0.00    +0.072 C 
ENDROOT
BRANCH   1   2
ATOM      2  N   UNL     1      45.712  80.617  39.896  0.00  0.00    -0.270 NA
ATOM      3  C   UNL     1      46.193  80.425  41.216  0.00  0.00    +0.094 C 
ATOM      4  C   UNL     1      46.733  81.771  41.718  0.00  0.00    +0.110 C 
ATOM      5  N   UNL     1      47.870  82.069  40.874  0.00  0.00    -0.290 N 
ATOM      6  C   UNL     1      47.688  81.957  39.443  0.00  0.00    +0.110 C 
ATOM      7  C   UNL     1      46.177  81.814  39.230  0.00  0.00    +0.094 C 
ATOM      8  C   UNL     1      49.157  82.468  41.441  0.00  0.00    +0.140 A 
ATOM      9  N   UNL     1      50.267  81.938  40.925  0.00  0.00    -0.194 NA
ATOM     10  S   UNL     1      51.507  82.625  41.815  0.00  0.00    +0.014 S 
ATOM     11  C   UNL     1      50.587  83.605  42.862  0.00  0.00    +0.050 A 
ATOM     12  C   UNL     1      50.880  84.498  43.910  0.00  0.00    +0.008 A 
ATOM     13  C   UNL     1      49.880  85.162  44.590  0.00  0.00    +0.001 A 
ATOM     14  C   UNL     1      48.597  84.893  44.176  0.00  0.00    +0.000 A 
ATOM     15  C   UNL     1      48.281  84.026  43.155  0.00  0.00    +0.003 A 
ATOM     16  C   UNL     1      49.304  83.348  42.462  0.00  0.00    +0.040 A 
ENDBRANCH   1   2
BRANCH   1  17
ATOM     17  C   UNL     1      44.483  79.001  38.497  0.00  0.00    +0.019 C 
BRANCH  17  18
ATOM     18  C   UNL     1      43.909  77.937  39.435  0.00  0.00    +0.023 C 
BRANCH  18  19
ATOM     19  C   UNL     1      42.585  78.401  40.006  0.00  0.00    +0.101 C 
BRANCH  19  28
ATOM     20  C   UNL     1      39.259  75.776  36.359  0.00  0.00    +0.001 C 
ATOM     21  C   UNL     1      40.307  75.013  37.126  0.00  0.00    +0.001 C 
ATOM     22  C   UNL     1      39.732  74.810  38.531  0.00  0.00    +0.010 C 
ATOM     23  C   UNL     1      39.652  76.137  39.250  0.00  0.00    +0.086 C 
ATOM     24  C   UNL     1      39.461  77.309  38.357  0.00  0.00    +0.086 C 
ATOM     25  C   UNL     1      38.798  77.016  37.043  0.00  0.00    +0.010 C 
ATOM     26  C   UNL     1      40.755  77.989  38.217  0.00  0.00    +0.231 C 
ATOM     27  O   UNL     1      41.148  78.720  37.290  0.00  0.00    -0.274 OA
ATOM     28  N   UNL     1      41.510  77.639  39.394  0.00  0.00    -0.230 N 
ATOM     29  C   UNL     1      40.988  76.379  39.856  0.00  0.00    +0.231 C 
ATOM     30  O   UNL     1      41.575  75.598  40.654  0.00  0.00    -0.274 OA
ENDBRANCH  19  28
ENDBRANCH  18  19
ENDBRANCH  17  18
ENDBRANCH   1  17
TORSDOF 5
