REMARK  Name = Perphenazine
REMARK  6 active torsions:
REMARK  status: ('A' for Active; 'I' for Inactive)
REMARK    1  A    between atoms: N_3  and  C_25
REMARK    2  A    between atoms: N_6  and  C_7
REMARK    3  A    between atoms: C_7  and  C_8
REMARK    4  A    between atoms: C_8  and  C_9
REMARK    5  A    between atoms: C_9  and  N_10
REMARK    6  A    between atoms: C_25  and  C_26
REMARK                            x       y       z     vdW  Elec       q    Type
REMARK                         _______ _______ _______ _____ _____    ______ ____
ROOT
ATOM      1  N   UNL     1      44.492  78.236  39.971  0.00  0.00    -0.286 N 
ATOM      2  C   UNL     1      44.302  77.263  40.979  0.00  0.00    +0.058 A 
ATOM      3  C   UNL     1      43.461  76.194  40.672  0.00  0.00    +0.015 A 
ATOM      4  C   UNL     1      43.198  75.179  41.580  0.00  0.00    +0.001 A 
ATOM      5  C   UNL     1      43.786  75.215  42.844  0.00  0.00    +0.001 A 
ATOM      6  C   UNL     1      44.618  76.275  43.142  0.00  0.00    +0.008 A 
ATOM      7  C   UNL     1      44.853  77.255  42.224  0.00  0.00    +0.043 A 
ATOM      8  S   UNL     1      45.944  78.557  42.708  0.00  0.00    -0.084 S 
ATOM      9  C   UNL     1      46.030  79.658  41.315  0.00  0.00    +0.043 A 
ATOM     10  C   UNL     1      45.341  79.385  40.179  0.00  0.00    +0.058 A 
ATOM     11  C   UNL     1      45.478  80.325  39.161  0.00  0.00    +0.027 A 
ATOM     12  C   UNL     1      46.277  81.472  39.310  0.00  0.00    +0.059 A 
ATOM     13  C   UNL     1      46.959  81.711  40.478  0.00  0.00    +0.012 A 
ATOM     14  C   UNL     1      46.801  80.761  41.467  0.00  0.00    +0.009 A 
ATOM     15 CL   UNL     1      46.440  82.643  38.024  0.00  0.00    -0.082 Cl
ENDROOT
BRANCH   1  16
ATOM     16  C   UNL     1      43.812  78.141  38.689  0.00  0.00    +0.097 C 
BRANCH  16  17
ATOM     17  C   UNL     1      42.340  78.404  38.746  0.00  0.00    +0.039 C 
BRANCH  17  18
ATOM     18  C   UNL     1      41.718  77.684  37.566  0.00  0.00    +0.074 C 
BRANCH  18  24
ATOM     19  C   UNL     1      40.811  75.464  37.672  0.00  0.00    +0.090 C 
ATOM     20  C   UNL     1      39.521  74.691  37.656  0.00  0.00    +0.090 C 
ATOM     21  N   UNL     1      38.560  75.301  36.748  0.00  0.00    -0.268 NA
ATOM     22  C   UNL     1      38.215  76.567  37.307  0.00  0.00    +0.090 C 
ATOM     23  C   UNL     1      39.374  77.444  37.632  0.00  0.00    +0.090 C 
ATOM     24  N   UNL     1      40.624  76.844  37.843  0.00  0.00    -0.270 NA
BRANCH  21  25
ATOM     25  C   UNL     1      39.082  75.417  35.421  0.00  0.00    +0.108 C 
BRANCH  25  26
ATOM     26  C   UNL     1      38.380  74.448  34.490  0.00  0.00    +0.199 C 
ATOM     27  O   UNL     1      38.175  73.261  35.195  0.00  0.00    -0.219 OA
ENDBRANCH  25  26
ENDBRANCH  21  25
ENDBRANCH  18  24
ENDBRANCH  17  18
ENDBRANCH  16  17
ENDBRANCH   1  16
TORSDOF 6
