REMARK  Name = Pexidartinib
REMARK  5 active torsions:
REMARK  status: ('A' for Active; 'I' for Inactive)
REMARK    1  A    between atoms: C_6  and  C_7
REMARK    2  A    between atoms: C_7  and  C_8
REMARK    3  A    between atoms: N_18  and  C_19
REMARK    4  A    between atoms: C_19  and  C_20
REMARK    5  A    between atoms: C_23  and  C_26
REMARK                            x       y       z     vdW  Elec       q    Type
REMARK                         _______ _______ _______ _____ _____    ______ ____
ROOT
ATOM      1  C   UNL     1      49.568  80.579  42.312  0.00  0.00    +0.001 A 
ATOM      2  C   UNL     1      50.892  80.972  42.551  0.00  0.00    +0.035 A 
ATOM      3  C   UNL     1      51.143  82.231  43.008  0.00  0.00    +0.148 A 
ATOM      4  N   UNL     1      50.097  83.087  43.224  0.00  0.00    -0.228 NA
ATOM      5  C   UNL     1      48.840  82.711  42.996  0.00  0.00    +0.096 A 
ATOM      6  C   UNL     1      48.542  81.434  42.528  0.00  0.00    +0.002 A 
ATOM      7  N   UNL     1      52.421  82.728  43.270  0.00  0.00    -0.215 NA
ENDROOT
BRANCH   6   8
ATOM      8  C   UNL     1      47.130  81.064  42.317  0.00  0.00    +0.056 C 
BRANCH   8   9
ATOM      9  C   UNL     1      46.651  81.547  41.014  0.00  0.00    +0.004 A 
ATOM     10  C   UNL     1      47.113  82.690  40.375  0.00  0.00    +0.097 A 
ATOM     11  N   UNL     1      46.468  82.807  39.198  0.00  0.00    -0.225 NA
ATOM     12  C   UNL     1      45.598  81.786  39.033  0.00  0.00    +0.162 A 
ATOM     13  C   UNL     1      45.715  81.005  40.164  0.00  0.00    +0.035 A 
ATOM     14  C   UNL     1      44.922  79.860  40.277  0.00  0.00    +0.016 A 
ATOM     15  C   UNL     1      44.039  79.535  39.250  0.00  0.00    +0.077 A 
ATOM     16  C   UNL     1      43.956  80.344  38.137  0.00  0.00    +0.112 A 
ATOM     17  N   UNL     1      44.730  81.440  38.056  0.00  0.00    -0.224 NA
ATOM     18 CL   UNL     1      43.045  78.082  39.410  0.00  0.00    -0.081 Cl
ENDBRANCH   8   9
ENDBRANCH   6   8
BRANCH   7  19
ATOM     19  C   UNL     1      53.117  83.637  42.416  0.00  0.00    +0.142 C 
BRANCH  19  20
ATOM     20  C   UNL     1      53.392  84.970  42.994  0.00  0.00    +0.019 A 
ATOM     21  C   UNL     1      54.303  85.827  42.462  0.00  0.00    +0.096 A 
ATOM     22  N   UNL     1      54.505  87.048  43.030  0.00  0.00    -0.240 NA
ATOM     23  C   UNL     1      53.832  87.449  44.115  0.00  0.00    +0.153 A 
ATOM     24  C   UNL     1      52.904  86.604  44.677  0.00  0.00    +0.023 A 
ATOM     25  C   UNL     1      52.674  85.369  44.132  0.00  0.00    +0.000 A 
BRANCH  23  26
ATOM     26  C   UNL     1      54.131  88.799  44.662  0.00  0.00    +0.435 C 
ATOM     27  F   UNL     1      54.978  89.467  43.817  0.00  0.00    -0.164 F 
ATOM     28  F   UNL     1      54.669  88.626  45.935  0.00  0.00    -0.164 F 
ATOM     29  F   UNL     1      52.974  89.528  44.845  0.00  0.00    -0.164 F 
ENDBRANCH  23  26
ENDBRANCH  19  20
ENDBRANCH   7  19
TORSDOF 5
