REMARK  Name = PF-04449913
REMARK  4 active torsions:
REMARK  status: ('A' for Active; 'I' for Inactive)
REMARK    1  A    between atoms: C_5  and  N_17
REMARK    2  A    between atoms: C_7  and  C_8
REMARK    3  A    between atoms: N_20  and  C_21
REMARK    4  A    between atoms: C_24  and  C_27
REMARK                            x       y       z     vdW  Elec       q    Type
REMARK                         _______ _______ _______ _____ _____    ______ ____
ROOT
ATOM      1  C   UNL     1      44.419  75.692  39.928  0.00  0.00    +0.090 C 
ATOM      2  N   UNL     1      44.491  77.119  40.008  0.00  0.00    -0.266 NA
ATOM      3  C   UNL     1      45.380  77.524  41.104  0.00  0.00    +0.074 C 
ATOM      4  C   UNL     1      45.750  78.977  40.888  0.00  0.00    +0.039 C 
ATOM      5  C   UNL     1      44.859  79.589  39.833  0.00  0.00    +0.100 C 
ATOM      6  C   UNL     1      43.408  79.256  40.041  0.00  0.00    +0.045 C 
ATOM      7  C   UNL     1      43.242  77.781  40.218  0.00  0.00    +0.118 C 
ENDROOT
BRANCH   7   8
ATOM      8  C   UNL     1      42.156  77.228  39.367  0.00  0.00    +0.154 A 
ATOM      9  N   UNL     1      41.827  77.660  38.162  0.00  0.00    -0.228 NA
ATOM     10  C   UNL     1      40.800  76.932  37.695  0.00  0.00    +0.100 A 
ATOM     11  C   UNL     1      40.059  76.928  36.531  0.00  0.00    +0.021 A 
ATOM     12  C   UNL     1      39.048  76.031  36.357  0.00  0.00    +0.002 A 
ATOM     13  C   UNL     1      38.726  75.101  37.324  0.00  0.00    +0.002 A 
ATOM     14  C   UNL     1      39.463  75.101  38.486  0.00  0.00    +0.021 A 
ATOM     15  C   UNL     1      40.496  76.015  38.667  0.00  0.00    +0.100 A 
ATOM     16  N   UNL     1      41.344  76.214  39.692  0.00  0.00    -0.228 NA
ENDBRANCH   7   8
BRANCH   5  17
ATOM     17  N   UNL     1      45.059  81.013  39.680  0.00  0.00    -0.189 NA
ATOM     18  C   UNL     1      46.347  81.597  39.567  0.00  0.00    +0.343 C 
ATOM     19  O   UNL     1      46.517  82.542  38.743  0.00  0.00    -0.249 OA
ATOM     20  N   UNL     1      47.465  81.189  40.321  0.00  0.00    -0.161 NA
BRANCH  20  21
ATOM     21  C   UNL     1      48.172  82.007  41.239  0.00  0.00    +0.075 A 
ATOM     22  C   UNL     1      47.515  83.097  41.761  0.00  0.00    +0.017 A 
ATOM     23  C   UNL     1      48.106  83.964  42.660  0.00  0.00    +0.012 A 
ATOM     24  C   UNL     1      49.391  83.738  43.052  0.00  0.00    +0.069 A 
ATOM     25  C   UNL     1      50.071  82.639  42.534  0.00  0.00    +0.012 A 
ATOM     26  C   UNL     1      49.472  81.763  41.625  0.00  0.00    +0.017 A 
BRANCH  24  27
ATOM     27  C   UNL     1      50.085  84.589  43.988  0.00  0.00    +0.100 C 
ATOM     28  N   UNL     1      50.664  85.280  44.738  0.00  0.00    -0.191 NA
ENDBRANCH  24  27
ENDBRANCH  20  21
ENDBRANCH   5  17
TORSDOF 4
