REMARK  Name = PF-04971729
REMARK  6 active torsions:
REMARK  status: ('A' for Active; 'I' for Inactive)
REMARK    1  A    between atoms: C_2  and  O_3
REMARK    2  A    between atoms: O_3  and  C_4
REMARK    3  A    between atoms: C_7  and  C_10
REMARK    4  A    between atoms: C_10  and  C_11
REMARK    5  A    between atoms: C_15  and  C_17
REMARK    6  A    between atoms: C_21  and  C_25
REMARK                            x       y       z     vdW  Elec       q    Type
REMARK                         _______ _______ _______ _____ _____    ______ ____
ROOT
ATOM      1  C   UNL     1      48.143  81.452  41.647  0.00  0.00    -0.007 A 
ATOM      2  C   UNL     1      48.150  82.635  40.954  0.00  0.00    +0.054 A 
ATOM      3  C   UNL     1      47.279  82.743  39.880  0.00  0.00    +0.011 A 
ATOM      4  C   UNL     1      46.437  81.713  39.514  0.00  0.00    +0.001 A 
ATOM      5  C   UNL     1      46.417  80.516  40.200  0.00  0.00    +0.031 A 
ATOM      6  C   UNL     1      47.282  80.413  41.264  0.00  0.00    -0.003 A 
ATOM      7 CL   UNL     1      49.199  83.980  41.396  0.00  0.00    -0.083 Cl
ENDROOT
BRANCH   5   8
ATOM      8  C   UNL     1      45.498  79.428  39.779  0.00  0.00    +0.239 C 
ATOM      9  C   UNL     1      44.868  79.776  38.470  0.00  0.00    +0.240 C 
ATOM     10  C   UNL     1      43.574  79.117  38.178  0.00  0.00    +0.220 C 
ATOM     11  C   UNL     1      42.951  78.365  39.301  0.00  0.00    +0.214 C 
ATOM     12  C   UNL     1      43.997  77.985  40.295  0.00  0.00    +0.183 C 
ATOM     13  O   UNL     1      44.567  79.162  40.779  0.00  0.00    -0.326 OA
ATOM     14  C   UNL     1      45.183  77.290  39.621  0.00  0.00    +0.177 C 
ATOM     15  O   UNL     1      46.200  78.218  39.737  0.00  0.00    -0.326 OA
ATOM     16  O   UNL     1      42.045  79.221  39.961  0.00  0.00    -0.218 OA
ATOM     17  O   UNL     1      42.667  80.125  37.780  0.00  0.00    -0.217 OA
ATOM     18  O   UNL     1      44.792  81.182  38.373  0.00  0.00    -0.215 OA
BRANCH  12  19
ATOM     19  C   UNL     1      43.463  77.117  41.409  0.00  0.00    +0.214 C 
ATOM     20  O   UNL     1      43.262  75.830  40.958  0.00  0.00    -0.218 OA
ENDBRANCH  12  19
ENDBRANCH   5   8
BRANCH   1  21
ATOM     21  C   UNL     1      49.025  81.212  42.789  0.00  0.00    +0.053 C 
BRANCH  21  25
ATOM     22  C   UNL     1      51.194  84.531  44.334  0.00  0.00    +0.139 A 
ATOM     23  C   UNL     1      49.820  84.592  44.314  0.00  0.00    +0.037 A 
ATOM     24  C   UNL     1      49.094  83.528  43.824  0.00  0.00    -0.001 A 
ATOM     25  C   UNL     1      49.682  82.402  43.350  0.00  0.00    -0.018 A 
ATOM     26  C   UNL     1      51.082  82.351  43.375  0.00  0.00    -0.001 A 
ATOM     27  C   UNL     1      51.803  83.404  43.861  0.00  0.00    +0.037 A 
BRANCH  22  28
ATOM     28  O   UNL     1      51.989  85.562  44.812  0.00  0.00    -0.475 OA
BRANCH  28  30
ATOM     29  C   UNL     1      53.454  86.792  46.316  0.00  0.00    +0.051 C 
ATOM     30  C   UNL     1      52.505  85.652  46.108  0.00  0.00    +0.206 C 
ENDBRANCH  28  30
ENDBRANCH  22  28
ENDBRANCH  21  25
ENDBRANCH   1  21
TORSDOF 6
