REMARK  Name = Phenytoin
REMARK  2 active torsions:
REMARK  status: ('A' for Active; 'I' for Inactive)
REMARK    1  A    between atoms: C_4  and  C_7
REMARK    2  A    between atoms: C_7  and  C_14
REMARK                            x       y       z     vdW  Elec       q    Type
REMARK                         _______ _______ _______ _____ _____    ______ ____
ROOT
ATOM      1  C   UNL     1      46.791  81.242  40.397  0.00  0.00    +0.188 C 
ATOM      2  C   UNL     1      45.493  81.984  40.388  0.00  0.00    +0.275 C 
ATOM      3  O   UNL     1      44.581  81.879  41.275  0.00  0.00    -0.270 OA
ATOM      4  N   UNL     1      45.456  82.806  39.245  0.00  0.00    -0.124 NA
ATOM      5  C   UNL     1      46.548  82.470  38.407  0.00  0.00    +0.347 C 
ATOM      6  O   UNL     1      46.845  83.003  37.278  0.00  0.00    -0.249 OA
ATOM      7  N   UNL     1      47.255  81.426  39.059  0.00  0.00    -0.173 NA
ENDROOT
BRANCH   1  11
ATOM      8  C   UNL     1      46.102  77.131  41.384  0.00  0.00    -0.000 A 
ATOM      9  C   UNL     1      46.198  77.520  40.068  0.00  0.00    -0.000 A 
ATOM     10  C   UNL     1      46.421  78.853  39.739  0.00  0.00    -0.002 A 
ATOM     11  C   UNL     1      46.552  79.819  40.715  0.00  0.00    +0.008 A 
ATOM     12  C   UNL     1      46.453  79.409  42.029  0.00  0.00    -0.002 A 
ATOM     13  C   UNL     1      46.229  78.072  42.363  0.00  0.00    -0.000 A 
ENDBRANCH   1  11
BRANCH   1  14
ATOM     14  C   UNL     1      47.659  81.906  41.405  0.00  0.00    +0.008 A 
ATOM     15  C   UNL     1      49.019  81.627  41.475  0.00  0.00    -0.002 A 
ATOM     16  C   UNL     1      49.857  82.223  42.393  0.00  0.00    -0.000 A 
ATOM     17  C   UNL     1      49.353  83.138  43.292  0.00  0.00    -0.000 A 
ATOM     18  C   UNL     1      48.014  83.439  43.254  0.00  0.00    -0.000 A 
ATOM     19  C   UNL     1      47.187  82.828  42.322  0.00  0.00    -0.002 A 
ENDBRANCH   1  14
TORSDOF 2
