REMARK  Name = Phenprocoumon
REMARK  3 active torsions:
REMARK  status: ('A' for Active; 'I' for Inactive)
REMARK    1  A    between atoms: C_2  and  C_3
REMARK    2  A    between atoms: C_3  and  C_4
REMARK    3  A    between atoms: C_3  and  C_10
REMARK                            x       y       z     vdW  Elec       q    Type
REMARK                         _______ _______ _______ _____ _____    ______ ____
ROOT
ATOM      1  C   UNL     1      47.053  80.671  40.815  0.00  0.00    +0.096 A 
ATOM      2  C   UNL     1      46.284  79.575  41.125  0.00  0.00    +0.201 A 
ATOM      3  C   UNL     1      45.144  79.344  40.383  0.00  0.00    +0.073 A 
ATOM      4  C   UNL     1      44.368  78.244  40.690  0.00  0.00    +0.006 A 
ATOM      5  C   UNL     1      43.233  78.033  39.935  0.00  0.00    +0.000 A 
ATOM      6  C   UNL     1      42.855  78.870  38.902  0.00  0.00    +0.003 A 
ATOM      7  C   UNL     1      43.632  79.961  38.603  0.00  0.00    +0.038 A 
ATOM      8  C   UNL     1      44.778  80.186  39.355  0.00  0.00    +0.152 A 
ATOM      9  O   UNL     1      45.547  81.218  39.101  0.00  0.00    -0.421 OA
ATOM     10  C   UNL     1      46.627  81.474  39.773  0.00  0.00    +0.345 A 
ATOM     11  O   UNL     1      47.304  82.509  39.440  0.00  0.00    -0.245 OA
ATOM     12  O   UNL     1      46.639  78.702  42.169  0.00  0.00    -0.287 OA
ENDROOT
BRANCH   1  13
ATOM     13  C   UNL     1      48.281  81.004  41.537  0.00  0.00    +0.054 C 
BRANCH  13  14
ATOM     14  C   UNL     1      48.312  82.325  42.177  0.00  0.00    -0.018 A 
ATOM     15  C   UNL     1      47.199  83.087  42.364  0.00  0.00    -0.004 A 
ATOM     16  C   UNL     1      47.346  84.322  42.984  0.00  0.00    -0.000 A 
ATOM     17  C   UNL     1      48.584  84.757  43.396  0.00  0.00    -0.000 A 
ATOM     18  C   UNL     1      49.731  83.984  43.209  0.00  0.00    -0.000 A 
ATOM     19  C   UNL     1      49.584  82.762  42.595  0.00  0.00    -0.004 A 
ENDBRANCH  13  14
BRANCH  13  21
ATOM     20  C   UNL     1      50.072  79.394  40.852  0.00  0.00    +0.001 C 
ATOM     21  C   UNL     1      49.527  80.789  40.678  0.00  0.00    +0.009 C 
ENDBRANCH  13  21
ENDBRANCH   1  13
TORSDOF 3
