REMARK  Name = Phentolamine
REMARK  4 active torsions:
REMARK  status: ('A' for Active; 'I' for Inactive)
REMARK    1  A    between atoms: C_5  and  N_8
REMARK    2  A    between atoms: N_8  and  C_9
REMARK    3  A    between atoms: N_8  and  C_15
REMARK    4  A    between atoms: C_9  and  C_10
REMARK                            x       y       z     vdW  Elec       q    Type
REMARK                         _______ _______ _______ _____ _____    ______ ____
ROOT
ATOM      1  N   UNL     1      47.581  81.202  42.134  0.00  0.00    -0.280 N 
ENDROOT
BRANCH   1   6
ATOM      2  C   UNL     1      51.178  85.103  44.338  0.00  0.00    +0.031 C 
ATOM      3  C   UNL     1      50.307  84.037  43.777  0.00  0.00    -0.022 A 
ATOM      4  C   UNL     1      48.952  84.252  43.759  0.00  0.00    -0.003 A 
ATOM      5  C   UNL     1      48.075  83.310  43.256  0.00  0.00    +0.015 A 
ATOM      6  C   UNL     1      48.508  82.079  42.733  0.00  0.00    +0.052 A 
ATOM      7  C   UNL     1      49.878  81.919  42.774  0.00  0.00    +0.015 A 
ATOM      8  C   UNL     1      50.764  82.862  43.280  0.00  0.00    -0.003 A 
ENDBRANCH   1   6
BRANCH   1   9
ATOM      9  C   UNL     1      46.997  81.438  40.870  0.00  0.00    +0.055 A 
ATOM     10  C   UNL     1      45.727  81.058  40.507  0.00  0.00    +0.057 A 
ATOM     11  C   UNL     1      45.262  81.246  39.225  0.00  0.00    +0.197 A 
ATOM     12  C   UNL     1      46.037  81.821  38.251  0.00  0.00    +0.042 A 
ATOM     13  C   UNL     1      47.305  82.215  38.572  0.00  0.00    +0.005 A 
ATOM     14  C   UNL     1      47.773  82.027  39.852  0.00  0.00    +0.015 A 
ATOM     15  O   UNL     1      43.953  80.844  38.879  0.00  0.00    -0.287 OA
ENDBRANCH   1   9
BRANCH   1  16
ATOM     16  C   UNL     1      47.241  79.972  42.815  0.00  0.00    +0.158 C 
BRANCH  16  17
ATOM     17  C   UNL     1      46.701  78.936  41.905  0.00  0.00    +0.140 C 
ATOM     18  N   UNL     1      45.560  78.342  42.153  0.00  0.00    -0.255 NA
ATOM     19  C   UNL     1      45.233  77.372  41.134  0.00  0.00    +0.150 C 
ATOM     20  C   UNL     1      46.565  77.149  40.446  0.00  0.00    +0.140 C 
ATOM     21  N   UNL     1      47.214  78.396  40.694  0.00  0.00    -0.221 NA
ENDBRANCH  16  17
ENDBRANCH   1  16
TORSDOF 4
