REMARK  Name = Phenyl_Aminosalicylate
REMARK  3 active torsions:
REMARK  status: ('A' for Active; 'I' for Inactive)
REMARK    1  A    between atoms: C_4  and  O_7
REMARK    2  A    between atoms: O_7  and  C_8
REMARK    3  A    between atoms: C_8  and  C_10
REMARK                            x       y       z     vdW  Elec       q    Type
REMARK                         _______ _______ _______ _____ _____    ______ ____
ROOT
ATOM      1  C   UNL     1      44.677  80.029  39.441  0.00  0.00    +0.349 C 
ATOM      2  O   UNL     1      43.819  80.431  38.608  0.00  0.00    -0.244 OA
ENDROOT
BRANCH   1   3
ATOM      3  C   UNL     1      45.795  80.855  39.842  0.00  0.00    +0.115 A 
ATOM      4  C   UNL     1      46.079  82.022  39.190  0.00  0.00    +0.203 A 
ATOM      5  C   UNL     1      47.157  82.768  39.616  0.00  0.00    +0.060 A 
ATOM      6  C   UNL     1      47.942  82.375  40.665  0.00  0.00    +0.092 A 
ATOM      7  C   UNL     1      47.659  81.214  41.314  0.00  0.00    +0.018 A 
ATOM      8  C   UNL     1      46.572  80.453  40.890  0.00  0.00    +0.011 A 
ATOM      9  N   UNL     1      49.044  83.221  41.034  0.00  0.00    -0.128 NA
ATOM     10  O   UNL     1      45.326  82.487  38.114  0.00  0.00    -0.286 OA
ENDBRANCH   1   3
BRANCH   1  11
ATOM     11  O   UNL     1      44.469  78.742  39.942  0.00  0.00    -0.421 OA
BRANCH  11  15
ATOM     12  C   UNL     1      41.169  76.521  38.679  0.00  0.00    +0.000 A 
ATOM     13  C   UNL     1      41.907  76.130  39.773  0.00  0.00    +0.003 A 
ATOM     14  C   UNL     1      42.992  76.843  40.203  0.00  0.00    +0.038 A 
ATOM     15  C   UNL     1      43.373  77.982  39.542  0.00  0.00    +0.149 A 
ATOM     16  C   UNL     1      42.627  78.386  38.429  0.00  0.00    +0.038 A 
ATOM     17  C   UNL     1      41.537  77.661  38.004  0.00  0.00    +0.003 A 
ENDBRANCH  11  15
ENDBRANCH   1  11
TORSDOF 3
