REMARK  Name = Phenazopyridine
REMARK  2 active torsions:
REMARK  status: ('A' for Active; 'I' for Inactive)
REMARK    1  A    between atoms: C_4  and  N_7
REMARK    2  A    between atoms: N_8  and  C_9
REMARK                            x       y       z     vdW  Elec       q    Type
REMARK                         _______ _______ _______ _____ _____    ______ ____
ROOT
ATOM      1  N   UNL     1      47.738  82.065  41.909  0.00  0.00    -0.148 NA
ATOM      2  N   UNL     1      47.409  82.369  40.730  0.00  0.00    -0.145 NA
ENDROOT
BRANCH   2   3
ATOM      3  C   UNL     1      46.417  81.623  40.048  0.00  0.00    +0.138 A 
ATOM      4  C   UNL     1      45.912  82.115  38.847  0.00  0.00    +0.190 A 
ATOM      5  N   UNL     1      44.974  81.436  38.176  0.00  0.00    -0.208 NA
ATOM      6  C   UNL     1      44.476  80.269  38.611  0.00  0.00    +0.171 A 
ATOM      7  C   UNL     1      44.967  79.765  39.803  0.00  0.00    +0.039 A 
ATOM      8  C   UNL     1      45.930  80.432  40.521  0.00  0.00    +0.027 A 
ATOM      9  N   UNL     1      43.483  79.546  37.905  0.00  0.00    -0.107 NA
ATOM     10  N   UNL     1      46.404  83.346  38.342  0.00  0.00    -0.105 NA
ENDBRANCH   2   3
BRANCH   1  14
ATOM     11  C   UNL     1      50.502  84.555  43.944  0.00  0.00    +0.000 A 
ATOM     12  C   UNL     1      50.852  83.273  43.574  0.00  0.00    +0.002 A 
ATOM     13  C   UNL     1      49.947  82.469  42.911  0.00  0.00    +0.021 A 
ATOM     14  C   UNL     1      48.668  82.893  42.590  0.00  0.00    +0.103 A 
ATOM     15  C   UNL     1      48.324  84.176  42.963  0.00  0.00    +0.021 A 
ATOM     16  C   UNL     1      49.234  84.996  43.633  0.00  0.00    +0.002 A 
ENDBRANCH   1  14
TORSDOF 2
