REMARK  Name = Phendimetrazine
REMARK  1 active torsions:
REMARK  status: ('A' for Active; 'I' for Inactive)
REMARK    1  A    between atoms: C_3  and  C_9
REMARK                            x       y       z     vdW  Elec       q    Type
REMARK                         _______ _______ _______ _____ _____    ______ ____
ROOT
ATOM      1  C   UNL     1      45.596  83.384  39.696  0.00  0.00    +0.020 C 
ATOM      2  C   UNL     1      46.716  82.479  40.230  0.00  0.00    +0.089 C 
ATOM      3  C   UNL     1      46.589  82.344  41.711  0.00  0.00    +0.152 C 
ATOM      4  O   UNL     1      46.519  81.096  42.208  0.00  0.00    -0.349 OA
ATOM      5  C   UNL     1      45.878  80.128  41.537  0.00  0.00    +0.160 C 
ATOM      6  C   UNL     1      45.848  80.237  40.051  0.00  0.00    +0.105 C 
ATOM      7  N   UNL     1      46.707  81.234  39.598  0.00  0.00    -0.268 NA
ATOM      8  C   UNL     1      47.617  80.967  38.577  0.00  0.00    +0.090 C 
ENDROOT
BRANCH   3   9
ATOM      9  C   UNL     1      47.821  82.960  42.322  0.00  0.00    +0.006 A 
ATOM     10  C   UNL     1      48.968  82.194  42.280  0.00  0.00    -0.002 A 
ATOM     11  C   UNL     1      50.173  82.654  42.812  0.00  0.00    -0.000 A 
ATOM     12  C   UNL     1      50.194  83.912  43.391  0.00  0.00    -0.000 A 
ATOM     13  C   UNL     1      49.034  84.655  43.419  0.00  0.00    -0.000 A 
ATOM     14  C   UNL     1      47.837  84.193  42.888  0.00  0.00    -0.002 A 
ENDBRANCH   3   9
TORSDOF 1
