REMARK  Name = Phenindione
REMARK  1 active torsions:
REMARK  status: ('A' for Active; 'I' for Inactive)
REMARK    1  A    between atoms: C_4  and  C_7
REMARK                            x       y       z     vdW  Elec       q    Type
REMARK                         _______ _______ _______ _____ _____    ______ ____
ROOT
ATOM      1  C   UNL     1      47.441  81.240  40.231  0.00  0.00    +0.146 C 
ATOM      2  C   UNL     1      47.065  80.002  40.931  0.00  0.00    +0.184 C 
ATOM      3  O   UNL     1      47.717  79.411  41.829  0.00  0.00    -0.291 OA
ATOM      4  C   UNL     1      45.768  79.553  40.399  0.00  0.00    +0.038 A 
ATOM      5  C   UNL     1      45.020  78.402  40.604  0.00  0.00    +0.003 A 
ATOM      6  C   UNL     1      43.816  78.199  39.987  0.00  0.00    +0.000 A 
ATOM      7  C   UNL     1      43.342  79.172  39.142  0.00  0.00    +0.000 A 
ATOM      8  C   UNL     1      44.065  80.307  38.932  0.00  0.00    +0.003 A 
ATOM      9  C   UNL     1      45.293  80.519  39.557  0.00  0.00    +0.038 A 
ATOM     10  C   UNL     1      46.231  81.623  39.496  0.00  0.00    +0.184 C 
ATOM     11  O   UNL     1      46.073  82.732  38.922  0.00  0.00    -0.291 OA
ENDROOT
BRANCH   1  15
ATOM     12  C   UNL     1      48.603  84.165  43.107  0.00  0.00    -0.000 A 
ATOM     13  C   UNL     1      49.516  83.263  42.606  0.00  0.00    -0.000 A 
ATOM     14  C   UNL     1      49.149  82.315  41.676  0.00  0.00    -0.003 A 
ATOM     15  C   UNL     1      47.844  82.259  41.233  0.00  0.00    -0.008 A 
ATOM     16  C   UNL     1      46.936  83.152  41.728  0.00  0.00    -0.003 A 
ATOM     17  C   UNL     1      47.295  84.105  42.659  0.00  0.00    -0.000 A 
ENDBRANCH   1  15
TORSDOF 1
