REMARK  Name = Phloroglucinol
REMARK  0 active torsions:
REMARK  status: ('A' for Active; 'I' for Inactive)
REMARK                            x       y       z     vdW  Elec       q    Type
REMARK                         _______ _______ _______ _____ _____    ______ ____
ROOT
ATOM      1  C   UNL     1      46.611  80.199  41.268  0.00  0.00    +0.084 A 
ATOM      2  C   UNL     1      45.597  79.945  40.367  0.00  0.00    +0.202 A 
ATOM      3  C   UNL     1      45.361  80.825  39.322  0.00  0.00    +0.084 A 
ATOM      4  C   UNL     1      46.105  81.969  39.134  0.00  0.00    +0.202 A 
ATOM      5  C   UNL     1      47.120  82.221  40.039  0.00  0.00    +0.084 A 
ATOM      6  C   UNL     1      47.356  81.343  41.081  0.00  0.00    +0.202 A 
ATOM      7  O   UNL     1      48.394  81.671  41.944  0.00  0.00    -0.286 OA
ATOM      8  O   UNL     1      45.864  82.854  38.079  0.00  0.00    -0.286 OA
ATOM      9  O   UNL     1      44.833  78.798  40.537  0.00  0.00    -0.286 OA
ENDROOT
TORSDOF 0
