REMARK  Name = Phosphate
REMARK  0 active torsions:
REMARK  status: ('A' for Active; 'I' for Inactive)
REMARK                            x       y       z     vdW  Elec       q    Type
REMARK                         _______ _______ _______ _____ _____    ______ ____
ROOT
ATOM      1  O   UNL     1      51.897  80.402  42.080  0.00  0.00    -0.113 OA
ATOM      2  P   UNL     1      51.204  81.888  42.507  0.00  0.00    +0.559 P 
ATOM      3  O   UNL     1      52.147  82.971  42.081  0.00  0.00    -0.220 OA
ATOM      4  O   UNL     1      50.982  81.975  44.185  0.00  0.00    -0.113 OA
ATOM      5  O   UNL     1      49.743  82.105  41.711  0.00  0.00    -0.113 OA
ENDROOT
TORSDOF 0
