REMARK  Name = Phytonadione
REMARK  14 active torsions:
REMARK  status: ('A' for Active; 'I' for Inactive)
REMARK    1  A    between atoms: C_3  and  C_14
REMARK    2  A    between atoms: C_14  and  C_15
REMARK    3  A    between atoms: C_16  and  C_18
REMARK    4  A    between atoms: C_18  and  C_19
REMARK    5  A    between atoms: C_19  and  C_20
REMARK    6  A    between atoms: C_20  and  C_21
REMARK    7  A    between atoms: C_21  and  C_23
REMARK    8  A    between atoms: C_23  and  C_24
REMARK    9  A    between atoms: C_24  and  C_25
REMARK   10  A    between atoms: C_25  and  C_26
REMARK   11  A    between atoms: C_26  and  C_28
REMARK   12  A    between atoms: C_28  and  C_29
REMARK   13  A    between atoms: C_29  and  C_30
REMARK   14  A    between atoms: C_30  and  C_31
REMARK                            x       y       z     vdW  Elec       q    Type
REMARK                         _______ _______ _______ _____ _____    ______ ____
ROOT
ATOM      1  C   UNL     1      45.555  79.159  41.211  0.00  0.00    -0.030 C 
ATOM      2  C   UNL     1      46.564  79.847  41.696  0.00  0.00    -0.048 C 
ATOM      3  C   UNL     1      46.935  79.658  43.136  0.00  0.00    +0.026 C 
ENDROOT
BRANCH   1   4
ATOM      4  C   UNL     1      44.901  78.087  42.023  0.00  0.00    +0.055 C 
BRANCH   4   7
ATOM      5  C   UNL     1      43.757  75.453  42.597  0.00  0.00    +0.034 C 
ATOM      6  C   UNL     1      43.327  76.303  41.466  0.00  0.00    +0.017 C 
ATOM      7  C   UNL     1      43.829  77.491  41.190  0.00  0.00    +0.020 C 
ATOM      8  C   UNL     1      43.323  78.238  40.045  0.00  0.00    +0.192 C 
ATOM      9  O   UNL     1      43.786  79.374  39.763  0.00  0.00    -0.287 OA
ATOM     10  C   UNL     1      42.271  77.741  39.165  0.00  0.00    +0.042 A 
ATOM     11  C   UNL     1      41.801  78.462  38.080  0.00  0.00    +0.003 A 
ATOM     12  C   UNL     1      40.805  77.987  37.250  0.00  0.00    +0.000 A 
ATOM     13  C   UNL     1      40.282  76.743  37.541  0.00  0.00    +0.000 A 
ATOM     14  C   UNL     1      40.745  76.007  38.627  0.00  0.00    +0.003 A 
ATOM     15  C   UNL     1      41.740  76.500  39.444  0.00  0.00    +0.042 A 
ATOM     16  C   UNL     1      42.260  75.777  40.588  0.00  0.00    +0.192 C 
ATOM     17  O   UNL     1      41.768  74.639  40.839  0.00  0.00    -0.287 OA
ENDBRANCH   4   7
ENDBRANCH   1   4
BRANCH   2  18
ATOM     18  C   UNL     1      47.297  80.781  40.813  0.00  0.00    +0.022 C 
BRANCH  18  19
ATOM     19  C   UNL     1      47.185  82.188  41.396  0.00  0.00    +0.004 C 
BRANCH  19  20
ATOM     20  C   UNL     1      47.973  82.260  42.672  0.00  0.00    +0.000 C 
BRANCH  20  21
ATOM     21  C   UNL     1      48.917  83.394  42.758  0.00  0.00    +0.000 C 
ATOM     22  C   UNL     1      48.246  84.732  42.814  0.00  0.00    +0.000 C 
BRANCH  21  23
ATOM     23  C   UNL     1      49.843  83.323  43.983  0.00  0.00    +0.000 C 
BRANCH  23  24
ATOM     24  C   UNL     1      51.203  83.839  43.643  0.00  0.00    +0.000 C 
BRANCH  24  25
ATOM     25  C   UNL     1      52.273  83.519  44.587  0.00  0.00    +0.000 C 
BRANCH  25  26
ATOM     26  C   UNL     1      52.480  82.145  45.102  0.00  0.00    +0.000 C 
ATOM     27  C   UNL     1      52.189  81.077  44.138  0.00  0.00    +0.000 C 
BRANCH  26  28
ATOM     28  C   UNL     1      53.844  82.087  45.778  0.00  0.00    +0.000 C 
BRANCH  28  29
ATOM     29  C   UNL     1      53.945  82.883  47.014  0.00  0.00    +0.000 C 
BRANCH  29  30
ATOM     30  C   UNL     1      53.882  82.153  48.291  0.00  0.00    +0.000 C 
BRANCH  30  31
ATOM     31  C   UNL     1      55.075  81.905  49.097  0.00  0.00    +0.000 C 
ATOM     32  C   UNL     1      56.032  83.051  49.276  0.00  0.00    +0.000 C 
ATOM     33  C   UNL     1      54.815  81.306  50.460  0.00  0.00    +0.000 C 
ENDBRANCH  30  31
ENDBRANCH  29  30
ENDBRANCH  28  29
ENDBRANCH  26  28
ENDBRANCH  25  26
ENDBRANCH  24  25
ENDBRANCH  23  24
ENDBRANCH  21  23
ENDBRANCH  20  21
ENDBRANCH  19  20
ENDBRANCH  18  19
ENDBRANCH   2  18
TORSDOF 14
