REMARK  Name = Picrotoxin
REMARK  2 active torsions:
REMARK  status: ('A' for Active; 'I' for Inactive)
REMARK    1  A    between atoms: C_2  and  C_4
REMARK    2  A    between atoms: C_26  and  C_40
REMARK                            x       y       z     vdW  Elec       q    Type
REMARK                         _______ _______ _______ _____ _____    ______ ____
ROOT
ATOM      1  C   UNL     1      46.654  80.618  39.802  0.00  0.00    +0.075 C 
ATOM      2  C   UNL     1      48.100  80.392  39.645  0.00  0.00    +0.213 C 
ATOM      3  C   UNL     1      48.926  80.563  40.866  0.00  0.00    +0.214 C 
ATOM      4  C   UNL     1      48.490  81.586  41.830  0.00  0.00    +0.102 C 
ATOM      5  C   UNL     1      47.214  82.281  41.540  0.00  0.00    +0.145 C 
ATOM      6  C   UNL     1      46.665  82.092  40.189  0.00  0.00    +0.134 C 
ATOM      7  C   UNL     1      47.515  82.571  39.071  0.00  0.00    +0.319 C 
ATOM      8  O   UNL     1      47.506  83.643  38.427  0.00  0.00    -0.250 OA
ATOM      9  O   UNL     1      48.434  81.534  38.806  0.00  0.00    -0.448 OA
ATOM     10  C   UNL     1      47.481  83.697  41.971  0.00  0.00    +0.064 C 
ATOM     11  C   UNL     1      49.024  83.802  42.048  0.00  0.00    +0.153 C 
ATOM     12  C   UNL     1      49.548  82.650  41.722  0.00  0.00    +0.211 C 
ATOM     13  O   UNL     1      49.507  83.648  40.744  0.00  0.00    -0.345 OA
ATOM     14  C   UNL     1      50.725  81.835  41.519  0.00  0.00    +0.344 C 
ATOM     15  O   UNL     1      51.851  81.844  42.032  0.00  0.00    -0.247 OA
ATOM     16  O   UNL     1      50.289  80.945  40.525  0.00  0.00    -0.447 OA
ATOM     17  O   UNL     1      46.253  81.778  42.448  0.00  0.00    -0.225 OA
ATOM     18  C   UNL     1      48.556  81.057  43.261  0.00  0.00    +0.009 C 
ENDROOT
BRANCH   1  20
ATOM     19  C   UNL     1      44.976  80.401  41.654  0.00  0.00    +0.026 C 
ATOM     20  C   UNL     1      45.818  79.770  40.570  0.00  0.00    -0.040 C 
ATOM     21  C   UNL     1      45.703  78.477  40.453  0.00  0.00    -0.009 C 
ENDBRANCH   1  20
TORSDOF 1
REMARK  Name = Picrotoxin
REMARK  2 active torsions:
REMARK  status: ('A' for Active; 'I' for Inactive)
REMARK    1  A    between atoms: C_2  and  C_4
REMARK    2  A    between atoms: C_26  and  C_40
REMARK                            x       y       z     vdW  Elec       q    Type
REMARK                         _______ _______ _______ _____ _____    ______ ____
ROOT
ATOM      1  C   UNL     1      48.206  83.364  40.296  0.00  0.00    +0.009 C 
ATOM      2  C   UNL     1      48.105  82.590  41.569  0.00  0.00    +0.102 C 
ATOM      3  C   UNL     1      46.823  82.391  42.199  0.00  0.00    +0.214 C 
ATOM      4  C   UNL     1      46.477  80.944  42.248  0.00  0.00    +0.211 C 
ATOM      5  C   UNL     1      46.693  80.189  40.989  0.00  0.00    +0.085 C 
ATOM      6  C   UNL     1      48.216  80.143  41.066  0.00  0.00    +0.133 C 
ATOM      7  C   UNL     1      48.894  81.319  41.630  0.00  0.00    +0.145 C 
ATOM      8  C   UNL     1      50.129  81.899  41.056  0.00  0.00    +0.064 C 
ATOM      9  C   UNL     1      50.143  83.289  41.788  0.00  0.00    +0.153 C 
ATOM     10  C   UNL     1      49.012  83.432  42.488  0.00  0.00    +0.211 C 
ATOM     11  O   UNL     1      50.127  83.061  43.137  0.00  0.00    -0.345 OA
ATOM     12  C   UNL     1      48.010  84.028  43.282  0.00  0.00    +0.344 C 
ATOM     13  O   UNL     1      47.960  85.205  43.763  0.00  0.00    -0.247 OA
ATOM     14  O   UNL     1      47.023  83.012  43.448  0.00  0.00    -0.447 OA
ATOM     15  O   UNL     1      49.237  81.181  43.014  0.00  0.00    -0.225 OA
ATOM     16  C   UNL     1      48.133  79.278  42.337  0.00  0.00    +0.319 C 
ATOM     17  O   UNL     1      48.615  78.181  42.574  0.00  0.00    -0.250 OA
ATOM     18  O   UNL     1      47.335  80.161  43.107  0.00  0.00    -0.448 OA
ENDROOT
BRANCH   5  19
ATOM     19  C   UNL     1      45.962  80.312  39.796  0.00  0.00    +0.131 C 
ATOM     20  C   UNL     1      45.574  79.298  38.830  0.00  0.00    +0.033 C 
ATOM     21  C   UNL     1      46.678  81.396  38.936  0.00  0.00    +0.033 C 
ATOM     22  O   UNL     1      44.727  80.965  40.103  0.00  0.00    -0.226 OA
ENDBRANCH   5  19
TORSDOF 1
