REMARK  Name = Pilocarpine
REMARK  3 active torsions:
REMARK  status: ('A' for Active; 'I' for Inactive)
REMARK    1  A    between atoms: C_2  and  C_3
REMARK    2  A    between atoms: C_4  and  C_9
REMARK    3  A    between atoms: C_9  and  C_10
REMARK                            x       y       z     vdW  Elec       q    Type
REMARK                         _______ _______ _______ _____ _____    ______ ____
ROOT
ATOM      1  C   UNL     1      49.071  82.433  42.899  0.00  0.00    +0.103 C 
ATOM      2  C   UNL     1      48.112  82.788  41.757  0.00  0.00    +0.060 C 
ATOM      3  C   UNL     1      47.122  83.612  42.586  0.00  0.00    +0.209 C 
ATOM      4  O   UNL     1      48.013  84.424  43.341  0.00  0.00    -0.448 OA
ATOM      5  C   UNL     1      49.221  83.766  43.522  0.00  0.00    +0.317 C 
ATOM      6  O   UNL     1      50.200  84.282  44.114  0.00  0.00    -0.250 OA
ENDROOT
BRANCH   1   8
ATOM      7  C   UNL     1      51.082  82.772  41.447  0.00  0.00    +0.001 C 
ATOM      8  C   UNL     1      50.361  81.870  42.383  0.00  0.00    +0.011 C 
ENDBRANCH   1   8
BRANCH   2   9
ATOM      9  C   UNL     1      47.514  81.513  41.278  0.00  0.00    +0.050 C 
BRANCH   9  10
ATOM     10  C   UNL     1      46.577  81.664  40.135  0.00  0.00    +0.058 A 
ATOM     11  C   UNL     1      46.419  82.711  39.259  0.00  0.00    +0.113 A 
ATOM     12  N   UNL     1      45.447  82.353  38.401  0.00  0.00    -0.223 NA
ATOM     13  C   UNL     1      45.001  81.130  38.710  0.00  0.00    +0.178 A 
ATOM     14  N   UNL     1      45.702  80.702  39.785  0.00  0.00    -0.310 N 
ATOM     15  C   UNL     1      45.551  79.430  40.461  0.00  0.00    +0.132 C 
ENDBRANCH   9  10
ENDBRANCH   2   9
TORSDOF 3
