REMARK  Name = Pilsicainide
REMARK  3 active torsions:
REMARK  status: ('A' for Active; 'I' for Inactive)
REMARK    1  A    between atoms: C_3  and  N_9
REMARK    2  A    between atoms: C_10  and  C_12
REMARK    3  A    between atoms: C_12  and  C_13
REMARK                            x       y       z     vdW  Elec       q    Type
REMARK                         _______ _______ _______ _____ _____    ______ ____
ROOT
ATOM      1  N   UNL     1      47.966  81.550  42.038  0.00  0.00    -0.180 NA
ATOM      2  C   UNL     1      47.243  81.546  40.816  0.00  0.00    +0.247 C 
ATOM      3  O   UNL     1      46.906  82.639  40.323  0.00  0.00    -0.273 OA
ENDROOT
BRANCH   1   6
ATOM      4  C   UNL     1      50.754  81.263  41.914  0.00  0.00    +0.032 C 
ATOM      5  C   UNL     1      50.143  82.522  42.429  0.00  0.00    -0.007 A 
ATOM      6  C   UNL     1      48.773  82.623  42.473  0.00  0.00    +0.065 A 
ATOM      7  C   UNL     1      48.224  83.789  42.950  0.00  0.00    -0.007 A 
ATOM      8  C   UNL     1      49.050  84.839  43.377  0.00  0.00    -0.003 A 
ATOM      9  C   UNL     1      50.410  84.694  43.315  0.00  0.00    -0.001 A 
ATOM     10  C   UNL     1      50.976  83.544  42.845  0.00  0.00    -0.003 A 
ATOM     11  C   UNL     1      46.751  83.889  42.994  0.00  0.00    +0.032 C 
ENDBRANCH   1   6
BRANCH   2  12
ATOM     12  C   UNL     1      46.879  80.285  40.110  0.00  0.00    +0.102 C 
BRANCH  12  13
ATOM     13  C   UNL     1      45.514  79.797  40.480  0.00  0.00    +0.054 C 
ATOM     14  C   UNL     1      45.392  79.365  41.903  0.00  0.00    +0.017 C 
ATOM     15  C   UNL     1      44.254  78.339  41.817  0.00  0.00    +0.019 C 
ATOM     16  C   UNL     1      44.591  77.660  40.507  0.00  0.00    +0.072 C 
ATOM     17  N   UNL     1      45.232  78.625  39.670  0.00  0.00    -0.275 NA
ATOM     18  C   UNL     1      44.462  79.050  38.543  0.00  0.00    +0.072 C 
ATOM     19  C   UNL     1      43.558  80.114  39.119  0.00  0.00    +0.019 C 
ATOM     20  C   UNL     1      44.431  80.776  40.149  0.00  0.00    +0.017 C 
ENDBRANCH  12  13
ENDBRANCH   2  12
TORSDOF 3
