REMARK  Name = Pimavanserin
REMARK  8 active torsions:
REMARK  status: ('A' for Active; 'I' for Inactive)
REMARK    1  A    between atoms: C_2  and  C_4
REMARK    2  A    between atoms: C_4  and  O_5
REMARK    3  A    between atoms: O_5  and  C_6
REMARK    4  A    between atoms: C_9  and  C_12
REMARK    5  A    between atoms: C_12  and  N_13
REMARK    6  A    between atoms: N_16  and  C_17
REMARK    7  A    between atoms: N_16  and  C_25
REMARK    8  A    between atoms: C_17  and  C_18
REMARK                            x       y       z     vdW  Elec       q    Type
REMARK                         _______ _______ _______ _____ _____    ______ ____
ROOT
ATOM      1  N   UNL     1      44.216  79.475  39.065  0.00  0.00    -0.184 NA
ATOM      2  C   UNL     1      42.923  79.051  38.717  0.00  0.00    +0.324 C 
ATOM      3  O   UNL     1      42.426  79.615  37.679  0.00  0.00    -0.251 OA
ATOM      4  N   UNL     1      42.167  78.078  39.419  0.00  0.00    -0.260 N 
ENDROOT
BRANCH   4   5
ATOM      5  C   UNL     1      41.302  77.247  38.634  0.00  0.00    +0.080 C 
ATOM      6  C   UNL     1      39.986  76.900  39.256  0.00  0.00    +0.037 C 
ATOM      7  C   UNL     1      39.398  75.776  38.419  0.00  0.00    +0.074 C 
ATOM      8  N   UNL     1      39.886  75.713  37.081  0.00  0.00    -0.271 NA
ATOM      9  C   UNL     1      41.303  75.500  36.941  0.00  0.00    +0.074 C 
ATOM     10  C   UNL     1      42.050  76.012  38.176  0.00  0.00    +0.037 C 
ATOM     11  C   UNL     1      39.344  76.741  36.244  0.00  0.00    +0.090 C 
ENDBRANCH   4   5
BRANCH   1  12
ATOM     12  C   UNL     1      44.882  80.656  38.526  0.00  0.00    +0.143 C 
BRANCH  12  16
ATOM     13  C   UNL     1      47.847  82.365  41.139  0.00  0.00    +0.139 A 
ATOM     14  C   UNL     1      47.443  82.975  39.985  0.00  0.00    +0.037 A 
ATOM     15  C   UNL     1      46.472  82.419  39.134  0.00  0.00    +0.001 A 
ATOM     16  C   UNL     1      45.888  81.204  39.459  0.00  0.00    -0.000 A 
ATOM     17  C   UNL     1      46.273  80.571  40.611  0.00  0.00    +0.001 A 
ATOM     18  C   UNL     1      47.225  81.137  41.425  0.00  0.00    +0.037 A 
BRANCH  13  19
ATOM     19  O   UNL     1      48.779  82.869  41.978  0.00  0.00    -0.475 OA
BRANCH  19  20
ATOM     20  C   UNL     1      49.861  83.663  41.691  0.00  0.00    +0.205 C 
BRANCH  20  22
ATOM     21  C   UNL     1      50.959  83.879  43.881  0.00  0.00    +0.004 C 
ATOM     22  C   UNL     1      50.272  84.640  42.755  0.00  0.00    +0.044 C 
ATOM     23  C   UNL     1      49.004  85.229  43.381  0.00  0.00    +0.004 C 
ENDBRANCH  20  22
ENDBRANCH  19  20
ENDBRANCH  13  19
ENDBRANCH  12  16
ENDBRANCH   1  12
BRANCH   4  24
ATOM     24  C   UNL     1      42.287  78.022  40.860  0.00  0.00    +0.122 C 
BRANCH  24  25
ATOM     25  C   UNL     1      43.226  77.039  41.391  0.00  0.00    -0.002 A 
ATOM     26  C   UNL     1      43.062  76.542  42.657  0.00  0.00    -0.000 A 
ATOM     27  C   UNL     1      43.897  75.608  43.215  0.00  0.00    +0.029 A 
ATOM     28  C   UNL     1      44.952  75.130  42.500  0.00  0.00    +0.140 A 
ATOM     29  C   UNL     1      45.149  75.605  41.226  0.00  0.00    +0.029 A 
ATOM     30  C   UNL     1      44.287  76.560  40.667  0.00  0.00    -0.000 A 
ATOM     31  F   UNL     1      45.790  74.195  43.056  0.00  0.00    -0.204 F 
ENDBRANCH  24  25
ENDBRANCH   4  24
TORSDOF 8
