REMARK  Name = Pimecrolimus
REMARK  6 active torsions:
REMARK  status: ('A' for Active; 'I' for Inactive)
REMARK    1  A    between atoms: C_2  and  C_3
REMARK    2  A    between atoms: C_9  and  O_53
REMARK    3  A    between atoms: C_11  and  O_51
REMARK    4  A    between atoms: C_29  and  C_37
REMARK    5  A    between atoms: C_38  and  C_39
REMARK    6  A    between atoms: C_43  and  O_45
REMARK                            x       y       z     vdW  Elec       q    Type
REMARK                         _______ _______ _______ _____ _____    ______ ____
ROOT
ATOM      1  C   UNL     1      49.714  79.105  42.938  0.00  0.00    +0.079 C 
ATOM      2  C   UNL     1      50.348  77.759  42.992  0.00  0.00    -0.028 C 
ATOM      3  C   UNL     1      49.757  76.619  42.732  0.00  0.00    -0.048 C 
ATOM      4  C   UNL     1      48.340  76.434  42.331  0.00  0.00    +0.022 C 
ATOM      5  C   UNL     1      47.404  76.285  43.514  0.00  0.00    +0.007 C 
ATOM      6  C   UNL     1      45.990  76.062  43.106  0.00  0.00    +0.032 C 
ATOM      7  C   UNL     1      45.703  74.786  42.369  0.00  0.00    +0.145 C 
ATOM      8  C   UNL     1      44.554  74.991  41.401  0.00  0.00    +0.172 C 
ATOM      9  C   UNL     1      44.744  74.339  40.068  0.00  0.00    +0.145 C 
ATOM     10  C   UNL     1      43.346  74.189  39.492  0.00  0.00    +0.038 C 
ATOM     11  C   UNL     1      42.471  75.321  40.039  0.00  0.00    +0.065 C 
ATOM     12  C   UNL     1      43.310  76.575  40.253  0.00  0.00    +0.279 C 
ATOM     13  O   UNL     1      44.328  76.330  41.175  0.00  0.00    -0.324 OA
ATOM     14  C   UNL     1      42.463  77.644  40.808  0.00  0.00    +0.279 C 
ATOM     15  O   UNL     1      42.484  77.789  42.082  0.00  0.00    -0.281 OA
ATOM     16  C   UNL     1      41.605  78.555  40.097  0.00  0.00    +0.289 C 
ATOM     17  O   UNL     1      40.426  78.710  40.598  0.00  0.00    -0.267 OA
ATOM     18  N   UNL     1      41.851  79.299  38.944  0.00  0.00    -0.265 N 
ATOM     19  C   UNL     1      40.885  79.274  37.828  0.00  0.00    +0.094 C 
ATOM     20  C   UNL     1      41.621  78.597  36.692  0.00  0.00    +0.022 C 
ATOM     21  C   UNL     1      42.787  79.440  36.316  0.00  0.00    +0.004 C 
ATOM     22  C   UNL     1      43.712  79.820  37.415  0.00  0.00    +0.031 C 
ATOM     23  C   UNL     1      42.992  80.159  38.669  0.00  0.00    +0.175 C 
ATOM     24  C   UNL     1      43.862  80.341  39.858  0.00  0.00    +0.335 C 
ATOM     25  O   UNL     1      43.206  80.785  40.872  0.00  0.00    -0.248 OA
ATOM     26  O   UNL     1      45.160  80.053  39.791  0.00  0.00    -0.447 OA
ATOM     27  C   UNL     1      46.333  80.653  39.428  0.00  0.00    +0.189 C 
ATOM     28  C   UNL     1      47.279  80.554  40.637  0.00  0.00    +0.075 C 
ATOM     29  C   UNL     1      48.689  80.805  40.212  0.00  0.00    +0.163 C 
ATOM     30  C   UNL     1      49.613  81.111  41.354  0.00  0.00    +0.098 C 
ATOM     31  C   UNL     1      50.319  79.877  41.807  0.00  0.00    +0.157 C 
ATOM     32  O   UNL     1      51.352  79.483  41.300  0.00  0.00    -0.296 OA
ATOM     33  O   UNL     1      49.184  79.659  39.546  0.00  0.00    -0.223 OA
ATOM     34  C   UNL     1      46.813  81.329  41.817  0.00  0.00    +0.007 C 
ATOM     35  O   UNL     1      43.893  76.898  39.055  0.00  0.00    -0.187 OA
ATOM     36  C   UNL     1      41.419  75.537  39.003  0.00  0.00    +0.006 C 
ATOM     37  C   UNL     1      47.927  75.383  44.580  0.00  0.00    +0.000 C 
ATOM     38  C   UNL     1      50.608  75.376  42.848  0.00  0.00    +0.026 C 
ENDROOT
BRANCH  27  39
ATOM     39  C   UNL     1      46.302  81.974  38.826  0.00  0.00    -0.009 C 
ATOM     40  C   UNL     1      46.532  83.043  39.596  0.00  0.00    -0.031 C 
ATOM     41  C   UNL     1      46.034  82.292  37.405  0.00  0.00    +0.030 C 
BRANCH  40  42
ATOM     42  C   UNL     1      47.399  83.045  40.786  0.00  0.00    +0.024 C 
ATOM     43  C   UNL     1      47.272  81.711  41.499  0.00  0.00    +0.006 C 
ATOM     44  C   UNL     1      48.341  81.527  42.544  0.00  0.00    +0.019 C 
ATOM     45  C   UNL     1      49.064  82.796  42.895  0.00  0.00    +0.107 C 
ATOM     46  C   UNL     1      49.621  83.528  41.717  0.00  0.00    +0.131 C 
ATOM     47  C   UNL     1      48.863  83.231  40.442  0.00  0.00    +0.035 C 
ATOM     48 CL   UNL     1      48.045  83.891  43.877  0.00  0.00    -0.112 Cl
BRANCH  46  49
ATOM     49  O   UNL     1      49.628  84.894  42.002  0.00  0.00    -0.352 OA
ATOM     50  C   UNL     1      50.708  85.250  42.810  0.00  0.00    +0.174 C 
ENDBRANCH  46  49
ENDBRANCH  40  42
ENDBRANCH  27  39
BRANCH   1  52
ATOM     51  C   UNL     1      50.014  78.925  45.434  0.00  0.00    +0.001 C 
ATOM     52  C   UNL     1      49.893  79.831  44.252  0.00  0.00    +0.012 C 
ENDBRANCH   1  52
BRANCH   9  53
ATOM     53  O   UNL     1      45.453  73.172  40.059  0.00  0.00    -0.351 OA
ATOM     54  C   UNL     1      45.089  72.329  41.122  0.00  0.00    +0.174 C 
ENDBRANCH   9  53
BRANCH   7  55
ATOM     55  O   UNL     1      45.341  73.821  43.319  0.00  0.00    -0.351 OA
ATOM     56  C   UNL     1      46.331  73.457  44.185  0.00  0.00    +0.174 C 
ENDBRANCH   7  55
TORSDOF 6
