REMARK  Name = Pimozide
REMARK  7 active torsions:
REMARK  status: ('A' for Active; 'I' for Inactive)
REMARK    1  A    between atoms: N_3  and  C_17
REMARK    2  A    between atoms: C_6  and  N_7
REMARK    3  A    between atoms: C_17  and  C_18
REMARK    4  A    between atoms: C_18  and  C_19
REMARK    5  A    between atoms: C_19  and  C_20
REMARK    6  A    between atoms: C_20  and  C_21
REMARK    7  A    between atoms: C_20  and  C_28
REMARK                            x       y       z     vdW  Elec       q    Type
REMARK                         _______ _______ _______ _____ _____    ______ ____
ROOT
ATOM      1  C   UNL     1      47.359  79.598  40.769  0.00  0.00    +0.072 C 
ENDROOT
BRANCH   1   4
ATOM      2  C   UNL     1      43.759  78.649  40.555  0.00  0.00    +0.040 C 
ATOM      3  C   UNL     1      45.013  79.463  40.699  0.00  0.00    +0.074 C 
ATOM      4  N   UNL     1      46.211  78.718  40.813  0.00  0.00    -0.273 NA
ATOM      5  C   UNL     1      46.400  77.602  39.960  0.00  0.00    +0.074 C 
ATOM      6  C   UNL     1      45.129  76.990  39.439  0.00  0.00    +0.040 C 
ATOM      7  C   UNL     1      44.061  77.164  40.501  0.00  0.00    +0.093 C 
BRANCH   7   8
ATOM      8  N   UNL     1      42.892  76.368  40.233  0.00  0.00    -0.280 N 
ATOM      9  C   UNL     1      42.083  76.497  39.145  0.00  0.00    +0.082 A 
ATOM     10  C   UNL     1      42.158  77.361  38.080  0.00  0.00    +0.019 A 
ATOM     11  C   UNL     1      41.211  77.296  37.095  0.00  0.00    +0.002 A 
ATOM     12  C   UNL     1      40.198  76.358  37.196  0.00  0.00    +0.002 A 
ATOM     13  C   UNL     1      40.099  75.483  38.249  0.00  0.00    +0.021 A 
ATOM     14  C   UNL     1      41.065  75.568  39.229  0.00  0.00    +0.102 A 
ATOM     15  N   UNL     1      41.279  74.895  40.367  0.00  0.00    -0.191 NA
ATOM     16  C   UNL     1      42.389  75.379  40.982  0.00  0.00    +0.350 A 
ATOM     17  O   UNL     1      42.865  74.968  42.069  0.00  0.00    -0.244 OA
ENDBRANCH   7   8
ENDBRANCH   1   4
BRANCH   1  18
ATOM     18  C   UNL     1      47.473  80.367  42.042  0.00  0.00    +0.018 C 
BRANCH  18  19
ATOM     19  C   UNL     1      48.922  80.737  42.345  0.00  0.00    +0.010 C 
BRANCH  19  20
ATOM     20  C   UNL     1      49.279  82.033  41.654  0.00  0.00    +0.045 C 
BRANCH  20  21
ATOM     21  C   UNL     1      50.737  82.284  41.627  0.00  0.00    -0.018 A 
ATOM     22  C   UNL     1      51.548  81.883  42.678  0.00  0.00    -0.002 A 
ATOM     23  C   UNL     1      52.909  82.094  42.688  0.00  0.00    +0.029 A 
ATOM     24  C   UNL     1      53.500  82.725  41.624  0.00  0.00    +0.140 A 
ATOM     25  C   UNL     1      52.709  83.138  40.557  0.00  0.00    +0.029 A 
ATOM     26  C   UNL     1      51.343  82.917  40.564  0.00  0.00    -0.002 A 
ATOM     27  F   UNL     1      54.831  82.915  41.665  0.00  0.00    -0.204 F 
ENDBRANCH  20  21
BRANCH  20  28
ATOM     28  C   UNL     1      48.573  83.189  42.284  0.00  0.00    -0.018 A 
ATOM     29  C   UNL     1      47.779  84.062  41.579  0.00  0.00    -0.002 A 
ATOM     30  C   UNL     1      47.140  85.128  42.187  0.00  0.00    +0.029 A 
ATOM     31  C   UNL     1      47.279  85.359  43.554  0.00  0.00    +0.140 A 
ATOM     32  C   UNL     1      48.076  84.479  44.252  0.00  0.00    +0.029 A 
ATOM     33  C   UNL     1      48.715  83.414  43.647  0.00  0.00    -0.002 A 
ATOM     34  F   UNL     1      46.642  86.412  44.128  0.00  0.00    -0.204 F 
ENDBRANCH  20  28
ENDBRANCH  19  20
ENDBRANCH  18  19
ENDBRANCH   1  18
TORSDOF 7
