REMARK  Name = Pinacidil
REMARK  4 active torsions:
REMARK  status: ('A' for Active; 'I' for Inactive)
REMARK    1  A    between atoms: C_2  and  C_3
REMARK    2  A    between atoms: C_2  and  N_7
REMARK    3  A    between atoms: N_9  and  C_10
REMARK    4  A    between atoms: N_12  and  C_13
REMARK                            x       y       z     vdW  Elec       q    Type
REMARK                         _______ _______ _______ _____ _____    ______ ____
ROOT
ATOM      1  N   UNL     1      49.010  82.069  41.976  0.00  0.00    -0.238 NA
ATOM      2  C   UNL     1      48.497  80.948  41.803  0.00  0.00    +0.257 C 
ATOM      3  N   UNL     1      49.309  79.775  41.738  0.00  0.00    -0.134 NA
ATOM      4  N   UNL     1      47.074  80.847  41.716  0.00  0.00    -0.210 NA
ENDROOT
BRANCH   4   5
ATOM      5  C   UNL     1      46.392  81.158  40.540  0.00  0.00    +0.088 A 
ATOM      6  C   UNL     1      45.283  80.503  40.084  0.00  0.00    +0.040 A 
ATOM      7  C   UNL     1      44.719  80.894  38.896  0.00  0.00    +0.100 A 
ATOM      8  N   UNL     1      45.230  81.922  38.147  0.00  0.00    -0.242 NA
ATOM      9  C   UNL     1      46.322  82.585  38.574  0.00  0.00    +0.100 A 
ATOM     10  C   UNL     1      46.896  82.211  39.753  0.00  0.00    +0.040 A 
ENDBRANCH   4   5
BRANCH   1  12
ATOM     11  C   UNL     1      47.620  83.841  42.871  0.00  0.00    +0.026 C 
ATOM     12  C   UNL     1      48.846  82.962  43.058  0.00  0.00    +0.106 C 
BRANCH  12  13
ATOM     13  C   UNL     1      50.083  83.849  43.244  0.00  0.00    +0.021 C 
ATOM     14  C   UNL     1      51.214  82.956  43.682  0.00  0.00    +0.002 C 
ATOM     15  C   UNL     1      50.516  84.450  41.906  0.00  0.00    +0.002 C 
ATOM     16  C   UNL     1      49.823  84.935  44.223  0.00  0.00    +0.002 C 
ENDBRANCH  12  13
ENDBRANCH   1  12
BRANCH   3  17
ATOM     17  C   UNL     1      50.672  79.773  41.976  0.00  0.00    +0.208 C 
ATOM     18  N   UNL     1      51.807  79.756  42.177  0.00  0.00    -0.169 NA
ENDBRANCH   3  17
TORSDOF 4
