REMARK  Name = Pioglitazone
REMARK  7 active torsions:
REMARK  status: ('A' for Active; 'I' for Inactive)
REMARK    1  A    between atoms: C_2  and  C_3
REMARK    2  A    between atoms: C_6  and  C_9
REMARK    3  A    between atoms: C_9  and  C_10
REMARK    4  A    between atoms: C_10  and  O_11
REMARK    5  A    between atoms: O_11  and  C_12
REMARK    6  A    between atoms: C_15  and  C_18
REMARK    7  A    between atoms: C_18  and  C_19
REMARK                            x       y       z     vdW  Elec       q    Type
REMARK                         _______ _______ _______ _____ _____    ______ ____
ROOT
ATOM      1  C   UNL     1      46.259  80.813  40.173  0.00  0.00    +0.139 A 
ATOM      2  C   UNL     1      46.967  79.967  41.000  0.00  0.00    +0.037 A 
ATOM      3  C   UNL     1      47.823  80.451  41.985  0.00  0.00    -0.001 A 
ATOM      4  C   UNL     1      48.013  81.797  42.188  0.00  0.00    -0.021 A 
ATOM      5  C   UNL     1      47.304  82.639  41.359  0.00  0.00    -0.001 A 
ATOM      6  C   UNL     1      46.455  82.180  40.383  0.00  0.00    +0.037 A 
ENDROOT
BRANCH   1   7
ATOM      7  O   UNL     1      45.404  80.434  39.194  0.00  0.00    -0.475 OA
BRANCH   7   8
ATOM      8  C   UNL     1      44.572  79.366  39.028  0.00  0.00    +0.212 C 
BRANCH   8   9
ATOM      9  C   UNL     1      43.128  79.691  38.740  0.00  0.00    +0.093 C 
BRANCH   9  13
ATOM     10  C   UNL     1      40.886  76.113  38.347  0.00  0.00    -0.003 A 
ATOM     11  C   UNL     1      40.790  77.155  37.433  0.00  0.00    +0.094 A 
ATOM     12  N   UNL     1      41.521  78.289  37.585  0.00  0.00    -0.248 NA
ATOM     13  C   UNL     1      42.341  78.410  38.621  0.00  0.00    +0.063 A 
ATOM     14  C   UNL     1      42.488  77.412  39.573  0.00  0.00    +0.015 A 
ATOM     15  C   UNL     1      41.739  76.254  39.414  0.00  0.00    -0.002 A 
BRANCH  10  17
ATOM     16  C   UNL     1      38.810  74.970  38.984  0.00  0.00    +0.005 C 
ATOM     17  C   UNL     1      40.075  74.896  38.148  0.00  0.00    +0.028 C 
ENDBRANCH  10  17
ENDBRANCH   9  13
ENDBRANCH   8   9
ENDBRANCH   7   8
ENDBRANCH   1   7
BRANCH   4  18
ATOM     18  C   UNL     1      48.924  82.289  43.236  0.00  0.00    +0.047 C 
BRANCH  18  19
ATOM     19  C   UNL     1      49.571  83.602  42.904  0.00  0.00    +0.139 C 
ATOM     20  C   UNL     1      50.767  83.739  43.792  0.00  0.00    +0.259 C 
ATOM     21  O   UNL     1      50.765  84.475  44.834  0.00  0.00    -0.272 OA
ATOM     22  N   UNL     1      51.859  82.980  43.351  0.00  0.00    -0.135 NA
ATOM     23  C   UNL     1      52.012  82.935  41.953  0.00  0.00    +0.299 C 
ATOM     24  O   UNL     1      53.002  82.580  41.313  0.00  0.00    -0.261 OA
ATOM     25  S   UNL     1      50.461  83.504  41.291  0.00  0.00    -0.046 S 
ENDBRANCH  18  19
ENDBRANCH   4  18
TORSDOF 7
