REMARK  Name = Piperaquine
REMARK  6 active torsions:
REMARK  status: ('A' for Active; 'I' for Inactive)
REMARK    1  A    between atoms: N_3  and  C_27
REMARK    2  A    between atoms: N_6  and  C_7
REMARK    3  A    between atoms: C_7  and  C_8
REMARK    4  A    between atoms: C_8  and  C_9
REMARK    5  A    between atoms: C_9  and  N_10
REMARK    6  A    between atoms: N_13  and  C_16
REMARK                            x       y       z     vdW  Elec       q    Type
REMARK                         _______ _______ _______ _____ _____    ______ ____
ROOT
ATOM      1  C   UNL     1      44.431  79.151  37.881  0.00  0.00    +0.035 C 
ENDROOT
BRANCH   1   2
ATOM      2  C   UNL     1      43.945  78.666  39.216  0.00  0.00    +0.074 C 
BRANCH   2   8
ATOM      3  C   UNL     1      42.558  77.391  37.690  0.00  0.00    +0.094 C 
ATOM      4  C   UNL     1      41.105  76.986  37.545  0.00  0.00    +0.108 C 
ATOM      5  N   UNL     1      40.683  76.208  38.658  0.00  0.00    -0.305 N 
ATOM      6  C   UNL     1      41.246  76.306  39.989  0.00  0.00    +0.108 C 
ATOM      7  C   UNL     1      42.678  76.781  39.953  0.00  0.00    +0.094 C 
ATOM      8  N   UNL     1      42.724  77.917  39.025  0.00  0.00    -0.270 NA
BRANCH   5   9
ATOM      9  C   UNL     1      39.648  75.253  38.492  0.00  0.00    +0.051 A 
ATOM     10  C   UNL     1      39.492  74.243  39.388  0.00  0.00    +0.031 A 
ATOM     11  C   UNL     1      40.286  74.087  40.493  0.00  0.00    +0.004 A 
ATOM     12  C   UNL     1      40.099  73.056  41.386  0.00  0.00    +0.012 A 
ATOM     13  C   UNL     1      39.072  72.165  41.137  0.00  0.00    +0.059 A 
ATOM     14  C   UNL     1      38.273  72.302  40.047  0.00  0.00    +0.031 A 
ATOM     15  C   UNL     1      38.472  73.335  39.167  0.00  0.00    +0.083 A 
ATOM     16  N   UNL     1      37.672  73.474  38.088  0.00  0.00    -0.244 NA
ATOM     17  C   UNL     1      37.805  74.457  37.195  0.00  0.00    +0.100 A 
ATOM     18  C   UNL     1      38.809  75.378  37.383  0.00  0.00    +0.035 A 
ATOM     19 CL   UNL     1      38.805  70.837  42.259  0.00  0.00    -0.082 Cl
ENDBRANCH   5   9
ENDBRANCH   2   8
ENDBRANCH   1   2
BRANCH   1  20
ATOM     20  C   UNL     1      44.964  80.565  38.090  0.00  0.00    +0.074 C 
BRANCH  20  21
ATOM     21  N   UNL     1      45.420  80.643  39.484  0.00  0.00    -0.270 NA
ATOM     22  C   UNL     1      45.821  82.013  39.791  0.00  0.00    +0.094 C 
ATOM     23  C   UNL     1      47.303  82.150  39.419  0.00  0.00    +0.108 C 
ATOM     24  N   UNL     1      47.999  81.400  40.479  0.00  0.00    -0.305 N 
ATOM     25  C   UNL     1      47.472  80.061  40.695  0.00  0.00    +0.108 C 
ATOM     26  C   UNL     1      46.509  79.707  39.613  0.00  0.00    +0.094 C 
BRANCH  24  27
ATOM     27  C   UNL     1      49.056  81.967  41.212  0.00  0.00    +0.051 A 
ATOM     28  C   UNL     1      48.881  82.906  42.189  0.00  0.00    +0.031 A 
ATOM     29  C   UNL     1      47.629  83.386  42.529  0.00  0.00    +0.004 A 
ATOM     30  C   UNL     1      47.452  84.339  43.525  0.00  0.00    +0.012 A 
ATOM     31  C   UNL     1      48.542  84.837  44.209  0.00  0.00    +0.059 A 
ATOM     32  C   UNL     1      49.788  84.361  43.872  0.00  0.00    +0.031 A 
ATOM     33  C   UNL     1      49.979  83.412  42.882  0.00  0.00    +0.083 A 
ATOM     34  N   UNL     1      51.204  82.963  42.573  0.00  0.00    -0.244 NA
ATOM     35  C   UNL     1      51.413  82.043  41.619  0.00  0.00    +0.100 A 
ATOM     36  C   UNL     1      50.342  81.545  40.939  0.00  0.00    +0.035 A 
ATOM     37 CL   UNL     1      48.301  86.034  45.462  0.00  0.00    -0.082 Cl
ENDBRANCH  24  27
ENDBRANCH  20  21
ENDBRANCH   1  20
TORSDOF 6
