REMARK  Name = Piperacetazine
REMARK  7 active torsions:
REMARK  status: ('A' for Active; 'I' for Inactive)
REMARK    1  A    between atoms: C_2  and  C_4
REMARK    2  A    between atoms: N_17  and  C_18
REMARK    3  A    between atoms: C_18  and  C_19
REMARK    4  A    between atoms: C_19  and  C_20
REMARK    5  A    between atoms: C_20  and  N_21
REMARK    6  A    between atoms: C_24  and  C_27
REMARK    7  A    between atoms: C_27  and  C_28
REMARK                            x       y       z     vdW  Elec       q    Type
REMARK                         _______ _______ _______ _____ _____    ______ ____
ROOT
ATOM      1  C   UNL     1      45.877  80.921  39.947  0.00  0.00    +0.036 A 
ATOM      2  C   UNL     1      45.056  79.836  39.654  0.00  0.00    +0.018 A 
ATOM      3  C   UNL     1      44.837  78.802  40.553  0.00  0.00    +0.058 A 
ATOM      4  C   UNL     1      45.474  78.901  41.755  0.00  0.00    +0.043 A 
ATOM      5  C   UNL     1      46.294  79.985  42.047  0.00  0.00    +0.008 A 
ATOM      6  C   UNL     1      46.510  81.008  41.159  0.00  0.00    +0.003 A 
ATOM      7  S   UNL     1      45.277  77.621  42.984  0.00  0.00    -0.084 S 
ATOM      8  C   UNL     1      44.174  76.447  42.257  0.00  0.00    +0.043 A 
ATOM      9  C   UNL     1      43.837  75.362  43.019  0.00  0.00    +0.008 A 
ATOM     10  C   UNL     1      42.983  74.376  42.582  0.00  0.00    +0.001 A 
ATOM     11  C   UNL     1      42.477  74.542  41.316  0.00  0.00    +0.001 A 
ATOM     12  C   UNL     1      42.801  75.632  40.522  0.00  0.00    +0.015 A 
ATOM     13  C   UNL     1      43.662  76.607  40.985  0.00  0.00    +0.058 A 
ATOM     14  N   UNL     1      43.970  77.737  40.143  0.00  0.00    -0.286 N 
ENDROOT
BRANCH   1  16
ATOM     15  C   UNL     1      47.106  82.958  38.945  0.00  0.00    +0.077 C 
ATOM     16  C   UNL     1      46.044  81.953  38.935  0.00  0.00    +0.174 C 
ATOM     17  O   UNL     1      45.180  81.949  37.984  0.00  0.00    -0.291 OA
ENDBRANCH   1  16
BRANCH  14  18
ATOM     18  C   UNL     1      43.384  77.723  38.846  0.00  0.00    +0.097 C 
BRANCH  18  19
ATOM     19  C   UNL     1      41.880  77.943  39.022  0.00  0.00    +0.039 C 
BRANCH  19  20
ATOM     20  C   UNL     1      41.097  77.514  37.834  0.00  0.00    +0.074 C 
BRANCH  20  21
ATOM     21  N   UNL     1      40.185  76.435  38.054  0.00  0.00    -0.273 NA
ATOM     22  C   UNL     1      38.821  76.898  37.836  0.00  0.00    +0.072 C 
ATOM     23  C   UNL     1      37.973  75.659  37.633  0.00  0.00    +0.017 C 
ATOM     24  C   UNL     1      38.161  75.235  36.173  0.00  0.00    +0.005 C 
ATOM     25  C   UNL     1      39.616  75.518  35.861  0.00  0.00    +0.017 C 
ATOM     26  C   UNL     1      40.477  75.371  37.106  0.00  0.00    +0.072 C 
BRANCH  24  27
ATOM     27  C   UNL     1      37.762  73.809  35.989  0.00  0.00    +0.036 C 
BRANCH  27  28
ATOM     28  C   UNL     1      37.056  73.240  37.177  0.00  0.00    +0.182 C 
ATOM     29  O   UNL     1      37.540  71.943  37.441  0.00  0.00    -0.220 OA
ENDBRANCH  27  28
ENDBRANCH  24  27
ENDBRANCH  20  21
ENDBRANCH  19  20
ENDBRANCH  18  19
ENDBRANCH  14  18
TORSDOF 7
