REMARK  Name = Piperacillin
REMARK  6 active torsions:
REMARK  status: ('A' for Active; 'I' for Inactive)
REMARK    1  A    between atoms: C_2  and  N_3
REMARK    2  A    between atoms: N_13  and  CA_14
REMARK    3  A    between atoms: CA_14  and  C_15
REMARK    4  A    between atoms: CA_14  and  C_21
REMARK    5  A    between atoms: N_23  and  CA_24
REMARK    6  A    between atoms: CA_29  and  C_34
REMARK                            x       y       z     vdW  Elec       q    Type
REMARK                         _______ _______ _______ _____ _____    ______ ____
ROOT
ATOM      1  CA  UNL     1      44.258  78.983  39.025  0.00  0.00    +0.196 C 
ENDROOT
BRANCH   1  12
ATOM      2  N   UNL     1      38.053  78.459  36.917  0.00  0.00    -0.271 N 
ATOM      3  C   UNL     1      38.742  77.235  36.627  0.00  0.00    +0.116 C 
ATOM      4  C   UNL     1      40.239  77.383  36.508  0.00  0.00    +0.124 C 
ATOM      5  N   UNL     1      40.834  78.188  37.525  0.00  0.00    -0.204 N 
ATOM      6  C   UNL     1      40.032  79.156  38.188  0.00  0.00    +0.310 C 
ATOM      7  O   UNL     1      40.555  79.886  39.041  0.00  0.00    -0.264 OA
ATOM      8  C   UNL     1      38.610  79.320  37.902  0.00  0.00    +0.303 C 
ATOM      9  O   UNL     1      37.914  80.182  38.500  0.00  0.00    -0.265 OA
ATOM     10  C   UNL     1      42.206  78.057  37.899  0.00  0.00    +0.330 C 
ATOM     11  O   UNL     1      42.838  77.008  37.649  0.00  0.00    -0.250 OA
ATOM     12  N   UNL     1      42.913  79.090  38.562  0.00  0.00    -0.176 NA
BRANCH   2  14
ATOM     13  C   UNL     1      35.601  78.578  37.097  0.00  0.00    +0.023 C 
ATOM     14  C   UNL     1      36.821  78.857  36.255  0.00  0.00    +0.094 C 
ENDBRANCH   2  14
ENDBRANCH   1  12
BRANCH   1  15
ATOM     15  C   UNL     1      44.442  78.148  40.221  0.00  0.00    +0.006 A 
ATOM     16  C   UNL     1      43.404  77.987  41.114  0.00  0.00    -0.002 A 
ATOM     17  C   UNL     1      43.515  77.222  42.249  0.00  0.00    -0.000 A 
ATOM     18  C   UNL     1      44.694  76.580  42.529  0.00  0.00    -0.000 A 
ATOM     19  C   UNL     1      45.750  76.723  41.654  0.00  0.00    -0.000 A 
ATOM     20  C   UNL     1      45.618  77.495  40.521  0.00  0.00    -0.002 A 
ENDBRANCH   1  15
BRANCH   1  21
ATOM     21  C   UNL     1      44.906  80.331  39.224  0.00  0.00    +0.266 C 
ATOM     22  O   UNL     1      44.982  81.175  38.300  0.00  0.00    -0.271 OA
ATOM     23  N   UNL     1      45.457  80.692  40.481  0.00  0.00    -0.193 NA
BRANCH  23  24
ATOM     24  CA  UNL     1      46.459  81.693  40.629  0.00  0.00    +0.200 C 
ATOM     25  C   UNL     1      47.815  81.263  41.037  0.00  0.00    +0.153 C 
ATOM     26  N   UNL     1      47.877  82.532  41.746  0.00  0.00    -0.259 N 
ATOM     27  C   UNL     1      46.516  82.309  42.012  0.00  0.00    +0.249 C 
ATOM     28  O   UNL     1      45.691  82.505  42.935  0.00  0.00    -0.273 OA
ATOM     29  CA  UNL     1      49.113  83.180  41.756  0.00  0.00    +0.189 C 
ATOM     30  C   UNL     1      50.173  82.428  41.067  0.00  0.00    +0.068 C 
ATOM     31  S   UNL     1      49.166  81.512  39.823  0.00  0.00    -0.118 S 
ATOM     32  C   UNL     1      50.713  81.368  42.007  0.00  0.00    +0.013 C 
ATOM     33  C   UNL     1      51.242  83.230  40.416  0.00  0.00    +0.013 C 
BRANCH  29  34
ATOM     34  C   UNL     1      49.559  83.392  43.180  0.00  0.00    +0.383 C 
ATOM     35  O   UNL     1      49.135  82.658  44.104  0.00  0.00    -0.244 OA
ATOM     36  OXT UNL     1      50.442  84.400  43.487  0.00  0.00    -0.244 OA
ENDBRANCH  29  34
ENDBRANCH  23  24
ENDBRANCH   1  21
TORSDOF 6
