REMARK  Name = Pipobroman
REMARK  4 active torsions:
REMARK  status: ('A' for Active; 'I' for Inactive)
REMARK    1  A    between atoms: C_7  and  C_9
REMARK    2  A    between atoms: C_9  and  C_10
REMARK    3  A    between atoms: C_12  and  C_14
REMARK    4  A    between atoms: C_14  and  C_15
REMARK                            x       y       z     vdW  Elec       q    Type
REMARK                         _______ _______ _______ _____ _____    ______ ____
ROOT
ATOM      1  C   UNL     1      47.072  81.554  41.895  0.00  0.00    +0.115 C 
ATOM      2  C   UNL     1      46.529  80.548  40.901  0.00  0.00    +0.115 C 
ATOM      3  N   UNL     1      45.916  81.190  39.742  0.00  0.00    -0.276 N 
ATOM      4  C   UNL     1      46.263  82.569  39.477  0.00  0.00    +0.115 C 
ATOM      5  C   UNL     1      47.774  82.677  39.737  0.00  0.00    +0.115 C 
ATOM      6  N   UNL     1      47.979  82.390  41.137  0.00  0.00    -0.276 N 
ATOM      7  C   UNL     1      49.100  82.941  41.794  0.00  0.00    +0.227 C 
ATOM      8  O   UNL     1      50.047  83.501  41.155  0.00  0.00    -0.275 OA
ATOM      9  C   UNL     1      45.012  80.474  38.914  0.00  0.00    +0.227 C 
ATOM     10  O   UNL     1      44.510  81.093  37.941  0.00  0.00    -0.275 OA
ENDROOT
BRANCH   7  11
ATOM     11  C   UNL     1      49.213  82.884  43.271  0.00  0.00    +0.097 C 
BRANCH  11  12
ATOM     12  C   UNL     1      49.531  84.216  43.873  0.00  0.00    +0.077 C 
ATOM     13 BR   UNL     1      47.989  85.400  43.739  0.00  0.00    -0.080 Br
ENDBRANCH  11  12
ENDBRANCH   7  11
BRANCH   9  14
ATOM     14  C   UNL     1      44.668  79.053  39.178  0.00  0.00    +0.097 C 
BRANCH  14  15
ATOM     15  C   UNL     1      43.178  78.864  39.339  0.00  0.00    +0.077 C 
ATOM     16 BR   UNL     1      42.282  78.747  37.641  0.00  0.00    -0.080 Br
ENDBRANCH  14  15
ENDBRANCH   9  14
TORSDOF 4
