REMARK  Name = Pirarubicin
REMARK  7 active torsions:
REMARK  status: ('A' for Active; 'I' for Inactive)
REMARK    1  A    between atoms: C_3  and  O_39
REMARK    2  A    between atoms: C_6  and  O_8
REMARK    3  A    between atoms: O_8  and  C_9
REMARK    4  A    between atoms: C_11  and  C_33
REMARK    5  A    between atoms: C_26  and  O_30
REMARK    6  A    between atoms: C_33  and  C_35
REMARK    7  A    between atoms: O_39  and  C_40
REMARK                            x       y       z     vdW  Elec       q    Type
REMARK                         _______ _______ _______ _____ _____    ______ ____
ROOT
ATOM      1  C   UNL     1      43.439  77.405  40.784  0.00  0.00    +0.146 C 
ATOM      2  C   UNL     1      42.069  77.468  40.219  0.00  0.00    +0.072 C 
ATOM      3  C   UNL     1      41.852  78.316  39.022  0.00  0.00    +0.186 C 
ATOM      4  C   UNL     1      43.105  78.570  38.221  0.00  0.00    +0.067 C 
ATOM      5  C   UNL     1      44.136  79.162  39.151  0.00  0.00    +0.021 A 
ATOM      6  C   UNL     1      44.248  78.570  40.364  0.00  0.00    +0.043 A 
ATOM      7  C   UNL     1      45.200  79.116  41.235  0.00  0.00    +0.197 A 
ATOM      8  C   UNL     1      45.979  80.199  40.873  0.00  0.00    +0.084 A 
ATOM      9  C   UNL     1      45.840  80.781  39.630  0.00  0.00    +0.084 A 
ATOM     10  C   UNL     1      44.907  80.244  38.778  0.00  0.00    +0.195 A 
ATOM     11  O   UNL     1      44.720  80.776  37.529  0.00  0.00    -0.287 OA
ATOM     12  C   UNL     1      46.676  81.922  39.273  0.00  0.00    +0.199 C 
ATOM     13  O   UNL     1      46.531  82.429  38.142  0.00  0.00    -0.286 OA
ATOM     14  C   UNL     1      47.666  82.485  40.184  0.00  0.00    +0.045 A 
ATOM     15  C   UNL     1      47.800  81.903  41.418  0.00  0.00    +0.076 A 
ATOM     16  C   UNL     1      46.974  80.754  41.809  0.00  0.00    +0.202 C 
ATOM     17  O   UNL     1      47.109  80.236  42.938  0.00  0.00    -0.286 OA
ATOM     18  C   UNL     1      48.737  82.424  42.298  0.00  0.00    +0.142 A 
ATOM     19  C   UNL     1      49.537  83.515  41.958  0.00  0.00    +0.037 A 
ATOM     20  C   UNL     1      49.391  84.089  40.714  0.00  0.00    +0.003 A 
ATOM     21  C   UNL     1      48.461  83.570  39.844  0.00  0.00    +0.003 A 
ATOM     22  O   UNL     1      45.388  78.587  42.485  0.00  0.00    -0.287 OA
ATOM     23  O   UNL     1      41.363  79.594  39.370  0.00  0.00    -0.218 OA
ENDROOT
BRANCH  18  24
ATOM     24  O   UNL     1      48.835  81.803  43.532  0.00  0.00    -0.471 OA
ATOM     25  C   UNL     1      49.808  82.221  44.449  0.00  0.00    +0.252 C 
ENDBRANCH  18  24
BRANCH   3  26
ATOM     26  C   UNL     1      40.840  77.680  38.141  0.00  0.00    +0.211 C 
ATOM     27  O   UNL     1      40.315  76.645  38.516  0.00  0.00    -0.291 OA
BRANCH  26  28
ATOM     28  C   UNL     1      40.447  78.259  36.821  0.00  0.00    +0.248 C 
ATOM     29  O   UNL     1      39.075  78.378  36.666  0.00  0.00    -0.212 OA
ENDBRANCH  26  28
ENDBRANCH   3  26
BRANCH   1  30
ATOM     30  O   UNL     1      44.092  76.296  40.289  0.00  0.00    -0.328 OA
BRANCH  30  36
ATOM     31  C   UNL     1      44.796  74.901  43.844  0.00  0.00    +0.035 C 
ATOM     32  C   UNL     1      43.662  74.344  42.970  0.00  0.00    +0.146 C 
ATOM     33  C   UNL     1      43.948  72.946  42.529  0.00  0.00    +0.162 C 
ATOM     34  C   UNL     1      43.756  72.706  41.071  0.00  0.00    +0.126 C 
ATOM     35  C   UNL     1      44.418  73.899  40.362  0.00  0.00    +0.083 C 
ATOM     36  C   UNL     1      43.602  75.083  40.734  0.00  0.00    +0.237 C 
ATOM     37  O   UNL     1      43.257  75.223  42.037  0.00  0.00    -0.330 OA
ATOM     38  N   UNL     1      44.340  71.461  40.669  0.00  0.00    -0.130 NA
BRANCH  33  39
ATOM     39  O   UNL     1      43.214  71.983  43.223  0.00  0.00    -0.329 OA
BRANCH  39  40
ATOM     40  C   UNL     1      43.748  70.713  43.130  0.00  0.00    +0.235 C 
ATOM     41  C   UNL     1      42.748  69.644  43.510  0.00  0.00    +0.061 C 
ATOM     42  C   UNL     1      43.196  68.973  44.789  0.00  0.00    +0.008 C 
ATOM     43  C   UNL     1      44.528  68.286  44.485  0.00  0.00    +0.032 C 
ATOM     44  C   UNL     1      45.440  69.347  43.901  0.00  0.00    +0.145 C 
ATOM     45  O   UNL     1      44.872  70.596  43.941  0.00  0.00    -0.331 OA
ENDBRANCH  39  40
ENDBRANCH  33  39
ENDBRANCH  30  36
ENDBRANCH   1  30
TORSDOF 7
