REMARK  Name = Pirbuterol
REMARK  5 active torsions:
REMARK  status: ('A' for Active; 'I' for Inactive)
REMARK    1  A    between atoms: C_2  and  N_5
REMARK    2  A    between atoms: N_5  and  C_6
REMARK    3  A    between atoms: C_6  and  C_7
REMARK    4  A    between atoms: C_7  and  C_8
REMARK    5  A    between atoms: C_10  and  C_15
REMARK                            x       y       z     vdW  Elec       q    Type
REMARK                         _______ _______ _______ _____ _____    ______ ____
ROOT
ATOM      1  C   UNK A   0      47.456  81.226  40.661  0.00  0.00    +0.091 A 
ATOM      2  N   UNK A   1      46.508  80.273  40.521  0.00  0.00    -0.246 NA
ATOM      3  C   UNK A   1      45.553  80.332  39.572  0.00  0.00    +0.131 A 
ATOM      4  C   UNK A   1      45.481  81.377  38.674  0.00  0.00    +0.212 A 
ATOM      5  C   UNK A   1      46.432  82.368  38.787  0.00  0.00    +0.045 A 
ATOM      6  C   UNK A   0      47.411  82.278  39.783  0.00  0.00    +0.021 A 
ATOM      7  O   UNK A   1      44.487  81.416  37.702  0.00  0.00    -0.285 OA
ENDROOT
BRANCH   1   8
ATOM      8  C   UNK A   0      48.474  81.090  41.734  0.00  0.00    +0.209 C 
ATOM      9  O   UNK A   0      47.893  80.448  42.829  0.00  0.00    -0.215 OA
BRANCH   8  10
ATOM     10  C   UNK A   0      49.010  82.435  42.164  0.00  0.00    +0.128 C 
BRANCH  10  11
ATOM     11  N   UNK A   0      50.112  82.323  43.060  0.00  0.00    -0.218 NA
BRANCH  11  13
ATOM     12  C   UNK A   0      51.684  84.112  42.426  0.00  0.00    +0.017 C 
ATOM     13  C   UNK A   0      50.741  83.544  43.435  0.00  0.00    +0.060 C 
ATOM     14  C   UNK A   0      49.678  84.576  43.741  0.00  0.00    +0.017 C 
ATOM     15  C   UNK A   0      51.453  83.268  44.768  0.00  0.00    +0.017 C 
ENDBRANCH  11  13
ENDBRANCH  10  11
ENDBRANCH   8  10
ENDBRANCH   1   8
BRANCH   3  16
ATOM     16  C   UNK A   1      44.513  79.262  39.438  0.00  0.00    +0.231 C 
ATOM     17  O   UNK A   1      44.808  78.272  40.369  0.00  0.00    -0.213 OA
ENDBRANCH   3  16
TORSDOF 5
