REMARK  Name = Pirenzepine
REMARK  2 active torsions:
REMARK  status: ('A' for Active; 'I' for Inactive)
REMARK    1  A    between atoms: N_5  and  C_8
REMARK    2  A    between atoms: C_8  and  C_9
REMARK                            x       y       z     vdW  Elec       q    Type
REMARK                         _______ _______ _______ _____ _____    ______ ____
ROOT
ATOM      1  C   UNL     1      46.127  78.697  42.224  0.00  0.00    +0.251 C 
ATOM      2  O   UNL     1      46.125  79.293  43.324  0.00  0.00    -0.273 OA
ATOM      3  N   UNL     1      46.176  79.443  41.044  0.00  0.00    -0.220 N 
ATOM      4  C   UNL     1      45.205  79.231  40.023  0.00  0.00    +0.064 A 
ATOM      5  C   UNL     1      44.891  77.901  39.935  0.00  0.00    +0.015 A 
ATOM      6  C   UNL     1      43.945  77.520  39.016  0.00  0.00    +0.001 A 
ATOM      7  C   UNL     1      43.337  78.480  38.204  0.00  0.00    +0.000 A 
ATOM      8  C   UNL     1      43.647  79.818  38.283  0.00  0.00    +0.006 A 
ATOM      9  C   UNL     1      44.604  80.173  39.219  0.00  0.00    +0.069 A 
ATOM     10  C   UNL     1      44.856  81.615  39.162  0.00  0.00    +0.270 C 
ATOM     11  O   UNL     1      43.978  82.352  38.675  0.00  0.00    -0.268 OA
ATOM     12  N   UNL     1      46.025  82.292  39.612  0.00  0.00    -0.173 NA
ATOM     13  C   UNL     1      47.127  81.709  40.325  0.00  0.00    +0.106 A 
ATOM     14  C   UNL     1      47.191  80.460  40.946  0.00  0.00    +0.157 A 
ATOM     15  N   UNL     1      48.332  80.141  41.549  0.00  0.00    -0.227 NA
ATOM     16  C   UNL     1      49.395  80.951  41.584  0.00  0.00    +0.100 A 
ATOM     17  C   UNL     1      49.333  82.198  40.966  0.00  0.00    +0.022 A 
ATOM     18  C   UNL     1      48.184  82.566  40.335  0.00  0.00    +0.021 A 
ENDROOT
BRANCH   1  19
ATOM     19  C   UNL     1      46.076  77.229  42.269  0.00  0.00    +0.159 C 
BRANCH  19  24
ATOM     20  C   UNL     1      43.173  72.966  42.615  0.00  0.00    +0.090 C 
ATOM     21  N   UNL     1      44.257  73.884  42.906  0.00  0.00    -0.269 NA
ATOM     22  C   UNL     1      44.713  74.575  41.721  0.00  0.00    +0.090 C 
ATOM     23  C   UNL     1      44.167  75.989  41.758  0.00  0.00    +0.090 C 
ATOM     24  N   UNL     1      44.816  76.739  42.815  0.00  0.00    -0.263 NA
ATOM     25  C   UNL     1      44.977  75.910  43.962  0.00  0.00    +0.090 C 
ATOM     26  C   UNL     1      43.966  74.755  43.999  0.00  0.00    +0.090 C 
ENDBRANCH  19  24
ENDBRANCH   1  19
TORSDOF 2
