REMARK  Name = Pirfenidone
REMARK  1 active torsions:
REMARK  status: ('A' for Active; 'I' for Inactive)
REMARK    1  A    between atoms: N_4  and  C_9
REMARK                            x       y       z     vdW  Elec       q    Type
REMARK                         _______ _______ _______ _____ _____    ______ ____
ROOT
ATOM      1  C   UNL     1      44.992  77.865  40.937  0.00  0.00    +0.033 C 
ATOM      2  C   UNL     1      45.343  79.194  40.377  0.00  0.00    -0.004 A 
ATOM      3  C   UNL     1      46.242  80.052  40.971  0.00  0.00    +0.079 A 
ATOM      4  N   UNL     1      46.542  81.260  40.434  0.00  0.00    -0.273 N 
ATOM      5  C   UNL     1      45.960  81.660  39.289  0.00  0.00    +0.265 A 
ATOM      6  O   UNL     1      46.254  82.802  38.797  0.00  0.00    -0.267 OA
ATOM      7  C   UNL     1      45.052  80.846  38.648  0.00  0.00    +0.061 A 
ATOM      8  C   UNL     1      44.756  79.621  39.203  0.00  0.00    +0.002 A 
ENDROOT
BRANCH   4   9
ATOM      9  C   UNL     1      47.488  82.100  41.109  0.00  0.00    +0.067 A 
ATOM     10  C   UNL     1      48.847  81.944  40.934  0.00  0.00    +0.018 A 
ATOM     11  C   UNL     1      49.754  82.754  41.585  0.00  0.00    +0.001 A 
ATOM     12  C   UNL     1      49.346  83.758  42.441  0.00  0.00    +0.000 A 
ATOM     13  C   UNL     1      47.986  83.915  42.616  0.00  0.00    +0.001 A 
ATOM     14  C   UNL     1      47.080  83.103  41.964  0.00  0.00    +0.018 A 
ENDBRANCH   4   9
TORSDOF 1
