REMARK  Name = Piritramide
REMARK  8 active torsions:
REMARK  status: ('A' for Active; 'I' for Inactive)
REMARK    1  A    between atoms: N_4  and  C_7
REMARK    2  A    between atoms: C_7  and  C_30
REMARK    3  A    between atoms: N_10  and  C_13
REMARK    4  A    between atoms: C_13  and  C_14
REMARK    5  A    between atoms: C_14  and  C_15
REMARK    6  A    between atoms: C_15  and  C_16
REMARK    7  A    between atoms: C_15  and  C_18
REMARK    8  A    between atoms: C_15  and  C_24
REMARK                            x       y       z     vdW  Elec       q    Type
REMARK                         _______ _______ _______ _____ _____    ______ ____
ROOT
ATOM      1  C   UNL     1      48.703  81.497  41.121  0.00  0.00    +0.074 C 
ENDROOT
BRANCH   1   5
ATOM      2  C   UNL     1      45.013  80.139  39.804  0.00  0.00    +0.121 C 
ATOM      3  C   UNL     1      45.089  80.578  41.234  0.00  0.00    +0.041 C 
ATOM      4  C   UNL     1      46.309  81.443  41.506  0.00  0.00    +0.074 C 
ATOM      5  N   UNL     1      47.482  80.795  41.100  0.00  0.00    -0.273 NA
ATOM      6  C   UNL     1      47.402  79.621  40.341  0.00  0.00    +0.074 C 
ATOM      7  C   UNL     1      46.336  79.623  39.289  0.00  0.00    +0.041 C 
BRANCH   2  11
ATOM      8  C   UNL     1      41.972  77.296  39.058  0.00  0.00    +0.003 C 
ATOM      9  C   UNL     1      42.246  78.486  38.193  0.00  0.00    +0.017 C 
ATOM     10  C   UNL     1      43.673  78.941  38.226  0.00  0.00    +0.072 C 
ATOM     11  N   UNL     1      43.978  79.184  39.642  0.00  0.00    -0.268 NA
ATOM     12  C   UNL     1      44.137  77.894  40.204  0.00  0.00    +0.072 C 
ATOM     13  C   UNL     1      42.821  77.156  40.250  0.00  0.00    +0.017 C 
ENDBRANCH   2  11
BRANCH   2  14
ATOM     14  C   UNL     1      44.648  81.368  39.007  0.00  0.00    +0.274 C 
ATOM     15  O   UNL     1      45.425  82.328  38.925  0.00  0.00    -0.270 OA
ATOM     16  N   UNL     1      43.398  81.396  38.358  0.00  0.00    -0.087 NA
ENDBRANCH   2  14
ENDBRANCH   1   5
BRANCH   1  17
ATOM     17  C   UNL     1      49.477  81.205  42.380  0.00  0.00    +0.040 C 
BRANCH  17  18
ATOM     18  C   UNL     1      50.281  82.343  42.907  0.00  0.00    +0.118 C 
BRANCH  18  19
ATOM     19  C   UNL     1      49.469  83.569  43.143  0.00  0.00    -0.006 A 
ATOM     20  C   UNL     1      48.137  83.521  43.468  0.00  0.00    -0.003 A 
ATOM     21  C   UNL     1      47.450  84.694  43.680  0.00  0.00    -0.000 A 
ATOM     22  C   UNL     1      48.058  85.931  43.577  0.00  0.00    -0.000 A 
ATOM     23  C   UNL     1      49.395  85.998  43.251  0.00  0.00    -0.000 A 
ATOM     24  C   UNL     1      50.059  84.811  43.044  0.00  0.00    -0.003 A 
ENDBRANCH  18  19
BRANCH  18  25
ATOM     25  C   UNL     1      51.509  82.652  42.150  0.00  0.00    -0.006 A 
ATOM     26  C   UNL     1      51.432  82.987  40.822  0.00  0.00    -0.003 A 
ATOM     27  C   UNL     1      52.609  83.283  40.125  0.00  0.00    -0.000 A 
ATOM     28  C   UNL     1      53.837  83.248  40.730  0.00  0.00    -0.000 A 
ATOM     29  C   UNL     1      53.906  82.912  42.058  0.00  0.00    -0.000 A 
ATOM     30  C   UNL     1      52.739  82.613  42.771  0.00  0.00    -0.003 A 
ENDBRANCH  18  25
BRANCH  18  31
ATOM     31  C   UNL     1      50.762  81.906  44.250  0.00  0.00    +0.079 C 
ATOM     32  N   UNL     1      51.120  81.561  45.297  0.00  0.00    -0.195 NA
ENDBRANCH  18  31
ENDBRANCH  17  18
ENDBRANCH   1  17
TORSDOF 8
