REMARK  Name = Piroxicam
REMARK  2 active torsions:
REMARK  status: ('A' for Active; 'I' for Inactive)
REMARK    1  A    between atoms: C_3  and  C_15
REMARK    2  A    between atoms: N_17  and  C_18
REMARK                            x       y       z     vdW  Elec       q    Type
REMARK                         _______ _______ _______ _____ _____    ______ ____
ROOT
ATOM      1  C   UNL     1      49.411  79.608  40.395  0.00  0.00    +0.139 C 
ATOM      2  N   UNL     1      49.039  80.773  41.174  0.00  0.00    -0.181 N 
ATOM      3  C   UNL     1      47.693  81.290  41.216  0.00  0.00    +0.163 C 
ATOM      4  C   UNL     1      47.419  82.404  41.839  0.00  0.00    +0.216 C 
ATOM      5  C   UNL     1      48.377  83.234  42.547  0.00  0.00    +0.059 A 
ATOM      6  C   UNL     1      47.912  84.426  43.119  0.00  0.00    +0.005 A 
ATOM      7  C   UNL     1      48.721  85.323  43.786  0.00  0.00    +0.000 A 
ATOM      8  C   UNL     1      50.057  85.030  43.895  0.00  0.00    +0.001 A 
ATOM      9  C   UNL     1      50.536  83.869  43.344  0.00  0.00    +0.020 A 
ATOM     10  C   UNL     1      49.707  83.007  42.693  0.00  0.00    +0.129 A 
ATOM     11  S   UNL     1      50.324  81.510  42.038  0.00  0.00    +0.077 S 
ATOM     12  O   UNL     1      50.799  80.607  43.154  0.00  0.00    -0.150 OA
ATOM     13  O   UNL     1      51.510  81.744  41.148  0.00  0.00    -0.150 OA
ATOM     14  O   UNL     1      46.083  82.880  41.851  0.00  0.00    -0.285 OA
ENDROOT
BRANCH   3  15
ATOM     15  C   UNL     1      46.688  80.491  40.532  0.00  0.00    +0.288 C 
ATOM     16  O   UNL     1      46.730  80.343  39.245  0.00  0.00    -0.266 OA
ATOM     17  N   UNL     1      45.612  79.821  41.150  0.00  0.00    -0.155 NA
BRANCH  17  18
ATOM     18  C   UNL     1      44.623  79.140  40.343  0.00  0.00    +0.155 A 
ATOM     19  C   UNL     1      44.201  77.896  40.742  0.00  0.00    +0.036 A 
ATOM     20  C   UNL     1      43.260  77.264  39.961  0.00  0.00    +0.005 A 
ATOM     21  C   UNL     1      42.753  77.862  38.808  0.00  0.00    +0.021 A 
ATOM     22  C   UNL     1      43.230  79.111  38.479  0.00  0.00    +0.100 A 
ATOM     23  N   UNL     1      44.162  79.752  39.240  0.00  0.00    -0.227 NA
ENDBRANCH  17  18
ENDBRANCH   3  15
TORSDOF 2
