REMARK  Name = Pirtobrutinib
REMARK  8 active torsions:
REMARK  status: ('A' for Active; 'I' for Inactive)
REMARK    1  A    between atoms: C_2  and  C_3
REMARK    2  A    between atoms: C_2  and  N_7
REMARK    3  A    between atoms: C_9  and  C_31
REMARK    4  A    between atoms: C_10  and  C_12
REMARK    5  A    between atoms: C_15  and  C_18
REMARK    6  A    between atoms: C_18  and  N_19
REMARK    7  A    between atoms: C_20  and  C_22
REMARK    8  A    between atoms: C_23  and  O_29
REMARK                            x       y       z     vdW  Elec       q    Type
REMARK                         _______ _______ _______ _____ _____    ______ ____
ROOT
ATOM      1  C   UNL     1      48.105  81.406  41.405  0.00  0.00    +0.020 A 
ATOM      2  C   UNL     1      49.423  81.025  41.355  0.00  0.00    +0.001 A 
ATOM      3  C   UNL     1      50.435  81.779  41.906  0.00  0.00    -0.003 A 
ATOM      4  C   UNL     1      50.165  82.990  42.552  0.00  0.00    -0.001 A 
ATOM      5  C   UNL     1      48.854  83.387  42.611  0.00  0.00    -0.003 A 
ATOM      6  C   UNL     1      47.847  82.600  42.043  0.00  0.00    +0.001 A 
ENDROOT
BRANCH   1  10
ATOM      7  N   UNL     1      45.551  79.001  40.492  0.00  0.00    -0.228 N 
ATOM      8  C   UNL     1      45.208  79.968  39.640  0.00  0.00    +0.173 A 
ATOM      9  C   UNL     1      46.121  81.013  39.862  0.00  0.00    +0.110 A 
ATOM     10  C   UNL     1      46.995  80.641  40.855  0.00  0.00    +0.108 A 
ATOM     11  N   UNL     1      46.612  79.393  41.218  0.00  0.00    -0.168 NA
ATOM     12  N   UNL     1      44.159  80.020  38.683  0.00  0.00    -0.107 NA
BRANCH   9  13
ATOM     13  C   UNL     1      46.106  82.267  39.099  0.00  0.00    +0.289 C 
ATOM     14  O   UNL     1      45.089  82.540  38.377  0.00  0.00    -0.267 OA
ATOM     15  N   UNL     1      47.142  83.206  39.096  0.00  0.00    -0.084 NA
ENDBRANCH   9  13
BRANCH   7  17
ATOM     16  C   UNL     1      45.606  76.582  39.961  0.00  0.00    +0.035 C 
ATOM     17  C   UNL     1      44.880  77.716  40.611  0.00  0.00    +0.201 C 
BRANCH  17  18
ATOM     18  C   UNL     1      44.372  77.394  41.974  0.00  0.00    +0.418 C 
ATOM     19  F   UNL     1      43.601  78.404  42.516  0.00  0.00    -0.168 F 
ATOM     20  F   UNL     1      43.467  76.316  41.799  0.00  0.00    -0.168 F 
ATOM     21  F   UNL     1      45.303  77.019  42.891  0.00  0.00    -0.168 F 
ENDBRANCH  17  18
ENDBRANCH   7  17
ENDBRANCH   1  10
BRANCH   4  22
ATOM     22  C   UNL     1      51.316  83.727  43.082  0.00  0.00    +0.142 C 
BRANCH  22  23
ATOM     23  N   UNL     1      51.352  83.603  44.521  0.00  0.00    -0.197 NA
ATOM     24  C   UNL     1      52.384  82.911  45.172  0.00  0.00    +0.268 C 
ATOM     25  O   UNL     1      53.207  82.254  44.420  0.00  0.00    -0.268 OA
BRANCH  24  26
ATOM     26  C   UNL     1      52.580  82.890  46.608  0.00  0.00    +0.091 A 
ATOM     27  C   UNL     1      51.684  82.452  47.528  0.00  0.00    +0.143 A 
ATOM     28  C   UNL     1      51.942  82.453  48.898  0.00  0.00    +0.039 A 
ATOM     29  C   UNL     1      53.148  82.913  49.344  0.00  0.00    +0.033 A 
ATOM     30  C   UNL     1      54.084  83.364  48.467  0.00  0.00    +0.140 A 
ATOM     31  C   UNL     1      53.800  83.351  47.118  0.00  0.00    +0.037 A 
ATOM     32  F   UNL     1      55.290  83.823  48.925  0.00  0.00    -0.204 F 
BRANCH  27  33
ATOM     33  O   UNL     1      50.453  81.977  47.146  0.00  0.00    -0.471 OA
ATOM     34  C   UNL     1      49.609  81.142  47.871  0.00  0.00    +0.252 C 
ENDBRANCH  27  33
ENDBRANCH  24  26
ENDBRANCH  22  23
ENDBRANCH   4  22
TORSDOF 8
