REMARK  Name = Pivampicillin
REMARK  9 active torsions:
REMARK  status: ('A' for Active; 'I' for Inactive)
REMARK    1  A    between atoms: C_3  and  C_21
REMARK    2  A    between atoms: C_7  and  N_10
REMARK    3  A    between atoms: C_11  and  C_13
REMARK    4  A    between atoms: C_13  and  C_14
REMARK    5  A    between atoms: C_21  and  O_23
REMARK    6  A    between atoms: O_23  and  C_24
REMARK    7  A    between atoms: C_24  and  O_25
REMARK    8  A    between atoms: O_25  and  C_26
REMARK    9  A    between atoms: C_26  and  C_28
REMARK                            x       y       z     vdW  Elec       q    Type
REMARK                         _______ _______ _______ _____ _____    ______ ____
ROOT
ATOM      1  C   UNL     1      46.806  81.534  38.505  0.00  0.00    +0.013 C 
ATOM      2  C   UNL     1      46.338  80.964  39.845  0.00  0.00    +0.068 C 
ATOM      3  C   UNL     1      46.841  79.602  40.006  0.00  0.00    +0.185 C 
ATOM      4  N   UNL     1      45.791  78.666  40.172  0.00  0.00    -0.260 N 
ATOM      5  C   UNL     1      44.572  78.999  39.484  0.00  0.00    +0.153 C 
ATOM      6  S   UNL     1      44.536  80.798  39.728  0.00  0.00    -0.118 S 
ATOM      7  C   UNL     1      43.866  78.227  40.572  0.00  0.00    +0.200 C 
ATOM      8  C   UNL     1      45.149  77.517  40.632  0.00  0.00    +0.249 C 
ATOM      9  O   UNL     1      45.487  76.355  40.965  0.00  0.00    -0.273 OA
ATOM     10  C   UNL     1      46.718  81.921  40.950  0.00  0.00    +0.013 C 
ENDROOT
BRANCH   7  11
ATOM     11  N   UNL     1      42.753  77.502  40.047  0.00  0.00    -0.194 NA
ATOM     12  C   UNL     1      42.206  77.889  38.799  0.00  0.00    +0.264 C 
ATOM     13  O   UNL     1      42.104  79.121  38.561  0.00  0.00    -0.271 OA
BRANCH  12  14
ATOM     14  C   UNL     1      41.758  76.939  37.781  0.00  0.00    +0.191 C 
ATOM     15  N   UNL     1      41.787  75.573  38.284  0.00  0.00    -0.118 NA
BRANCH  14  16
ATOM     16  C   UNL     1      40.362  77.160  37.310  0.00  0.00    +0.004 A 
ATOM     17  C   UNL     1      39.870  78.319  36.803  0.00  0.00    -0.002 A 
ATOM     18  C   UNL     1      38.535  78.364  36.400  0.00  0.00    -0.000 A 
ATOM     19  C   UNL     1      37.697  77.277  36.498  0.00  0.00    -0.000 A 
ATOM     20  C   UNL     1      38.224  76.119  37.016  0.00  0.00    -0.000 A 
ATOM     21  C   UNL     1      39.523  76.044  37.417  0.00  0.00    -0.002 A 
ENDBRANCH  14  16
ENDBRANCH  12  14
ENDBRANCH   7  11
BRANCH   3  22
ATOM     22  C   UNL     1      47.800  79.604  41.171  0.00  0.00    +0.339 C 
ATOM     23  O   UNL     1      48.705  78.732  41.238  0.00  0.00    -0.248 OA
BRANCH  22  24
ATOM     24  O   UNL     1      47.719  80.532  42.170  0.00  0.00    -0.407 OA
BRANCH  24  25
ATOM     25  C   UNL     1      48.770  80.939  43.002  0.00  0.00    +0.433 C 
BRANCH  25  26
ATOM     26  O   UNL     1      48.859  82.354  42.916  0.00  0.00    -0.408 OA
BRANCH  26  27
ATOM     27  C   UNL     1      49.995  83.042  43.248  0.00  0.00    +0.319 C 
ATOM     28  O   UNL     1      51.002  82.408  43.651  0.00  0.00    -0.250 OA
BRANCH  27  29
ATOM     29  C   UNL     1      50.110  84.526  43.160  0.00  0.00    +0.090 C 
ATOM     30  C   UNL     1      50.975  84.956  44.337  0.00  0.00    +0.011 C 
ATOM     31  C   UNL     1      48.771  85.196  43.328  0.00  0.00    +0.011 C 
ATOM     32  C   UNL     1      50.757  84.989  41.895  0.00  0.00    +0.011 C 
ENDBRANCH  27  29
ENDBRANCH  26  27
ENDBRANCH  25  26
ENDBRANCH  24  25
ENDBRANCH  22  24
ENDBRANCH   3  22
TORSDOF 9
