REMARK  Name = Pivmecillinam
REMARK  7 active torsions:
REMARK  status: ('A' for Active; 'I' for Inactive)
REMARK    1  A    between atoms: C_3  and  C_19
REMARK    2  A    between atoms: C_7  and  N_10
REMARK    3  A    between atoms: C_19  and  O_21
REMARK    4  A    between atoms: O_21  and  C_22
REMARK    5  A    between atoms: C_22  and  O_23
REMARK    6  A    between atoms: O_23  and  C_24
REMARK    7  A    between atoms: C_24  and  C_26
REMARK                            x       y       z     vdW  Elec       q    Type
REMARK                         _______ _______ _______ _____ _____    ______ ____
ROOT
ATOM      1  C   UNL     1      44.877  76.590  40.080  0.00  0.00    +0.013 C 
ATOM      2  C   UNL     1      44.589  78.029  40.365  0.00  0.00    +0.068 C 
ATOM      3  C   UNL     1      44.666  78.882  39.159  0.00  0.00    +0.185 C 
ATOM      4  N   UNL     1      45.201  80.145  39.400  0.00  0.00    -0.259 N 
ATOM      5  C   UNL     1      45.697  80.379  40.775  0.00  0.00    +0.155 C 
ATOM      6  S   UNL     1      46.022  78.683  41.321  0.00  0.00    -0.118 S 
ATOM      7  C   UNL     1      46.781  81.113  40.075  0.00  0.00    +0.209 C 
ATOM      8  C   UNL     1      45.630  81.464  39.196  0.00  0.00    +0.252 C 
ATOM      9  O   UNL     1      45.210  82.450  38.560  0.00  0.00    -0.273 OA
ATOM     10  C   UNL     1      43.310  78.222  41.150  0.00  0.00    +0.013 C 
ENDROOT
BRANCH   7  11
ATOM     11  N   UNL     1      47.395  82.212  40.743  0.00  0.00    -0.244 NA
ATOM     12  C   UNL     1      48.558  82.130  41.244  0.00  0.00    +0.159 C 
ATOM     13  N   UNL     1      49.241  83.311  41.635  0.00  0.00    -0.291 N 
ATOM     14  C   UNL     1      50.680  83.226  41.529  0.00  0.00    +0.092 C 
ATOM     15  C   UNL     1      51.233  83.577  42.910  0.00  0.00    +0.021 C 
ATOM     16  C   UNL     1      50.876  85.013  43.185  0.00  0.00    +0.002 C 
ATOM     17  C   UNL     1      49.703  85.158  44.130  0.00  0.00    +0.002 C 
ATOM     18  C   UNL     1      48.440  84.585  43.571  0.00  0.00    +0.021 C 
ATOM     19  C   UNL     1      48.456  84.421  42.078  0.00  0.00    +0.092 C 
ENDBRANCH   7  11
BRANCH   3  20
ATOM     20  C   UNL     1      43.281  79.043  38.571  0.00  0.00    +0.339 C 
ATOM     21  O   UNL     1      42.998  80.102  37.972  0.00  0.00    -0.248 OA
BRANCH  20  22
ATOM     22  O   UNL     1      42.374  78.003  38.721  0.00  0.00    -0.407 OA
BRANCH  22  23
ATOM     23  C   UNL     1      41.111  78.174  38.082  0.00  0.00    +0.433 C 
BRANCH  23  24
ATOM     24  O   UNL     1      40.560  76.902  37.824  0.00  0.00    -0.408 OA
BRANCH  24  25
ATOM     25  C   UNL     1      39.302  76.703  37.312  0.00  0.00    +0.319 C 
ATOM     26  O   UNL     1      38.537  77.667  37.139  0.00  0.00    -0.250 OA
BRANCH  25  27
ATOM     27  C   UNL     1      38.911  75.299  36.982  0.00  0.00    +0.090 C 
ATOM     28  C   UNL     1      38.880  74.515  38.255  0.00  0.00    +0.011 C 
ATOM     29  C   UNL     1      39.893  74.695  36.009  0.00  0.00    +0.011 C 
ATOM     30  C   UNL     1      37.533  75.369  36.366  0.00  0.00    +0.011 C 
ENDBRANCH  25  27
ENDBRANCH  24  25
ENDBRANCH  23  24
ENDBRANCH  22  23
ENDBRANCH  20  22
ENDBRANCH   3  20
TORSDOF 7
