REMARK  Name = Pizotyline
REMARK  0 active torsions:
REMARK  status: ('A' for Active; 'I' for Inactive)
REMARK                            x       y       z     vdW  Elec       q    Type
REMARK                         _______ _______ _______ _____ _____    ______ ____
ROOT
ATOM      1  C   UNL     1      40.431  77.191  37.210  0.00  0.00    +0.090 C 
ATOM      2  N   UNL     1      41.187  78.140  37.995  0.00  0.00    -0.271 NA
ATOM      3  C   UNL     1      42.089  78.899  37.216  0.00  0.00    +0.077 C 
ATOM      4  C   UNL     1      42.779  79.936  38.138  0.00  0.00    +0.039 C 
ATOM      5  C   UNL     1      43.624  79.263  39.125  0.00  0.00    -0.041 C 
ATOM      6  C   UNL     1      44.709  79.562  39.769  0.00  0.00    -0.008 C 
ATOM      7  C   UNL     1      45.573  80.740  39.457  0.00  0.00    +0.002 A 
ATOM      8  C   UNL     1      46.788  80.983  40.115  0.00  0.00    +0.008 A 
ATOM      9  C   UNL     1      47.505  80.280  41.215  0.00  0.00    +0.038 C 
ATOM     10  C   UNL     1      46.504  79.856  42.328  0.00  0.00    +0.032 C 
ATOM     11  C   UNL     1      45.904  78.565  41.838  0.00  0.00    -0.022 A 
ATOM     12  C   UNL     1      46.279  77.475  42.570  0.00  0.00    -0.004 A 
ATOM     13  C   UNL     1      45.922  76.206  42.105  0.00  0.00    -0.000 A 
ATOM     14  C   UNL     1      45.210  76.062  40.935  0.00  0.00    -0.000 A 
ATOM     15  C   UNL     1      44.843  77.199  40.215  0.00  0.00    -0.000 A 
ATOM     16  C   UNL     1      45.184  78.455  40.664  0.00  0.00    -0.005 A 
ATOM     17  S   UNL     1      47.328  82.438  39.440  0.00  0.00    -0.091 S 
ATOM     18  C   UNL     1      46.072  82.744  38.367  0.00  0.00    +0.035 A 
ATOM     19  C   UNL     1      45.218  81.668  38.556  0.00  0.00    +0.007 A 
ATOM     20  C   UNL     1      42.759  78.183  39.858  0.00  0.00    +0.039 C 
ATOM     21  C   UNL     1      41.900  77.391  39.024  0.00  0.00    +0.077 C 
ENDROOT
TORSDOF 0
