REMARK  Name = Plaunotol
REMARK  11 active torsions:
REMARK  status: ('A' for Active; 'I' for Inactive)
REMARK    1  A    between atoms: C_3  and  C_4
REMARK    2  A    between atoms: C_4  and  C_5
REMARK    3  A    between atoms: C_5  and  C_6
REMARK    4  A    between atoms: C_7  and  C_8
REMARK    5  A    between atoms: C_8  and  C_9
REMARK    6  A    between atoms: C_9  and  C_10
REMARK    7  A    between atoms: C_10  and  C_19
REMARK    8  A    between atoms: C_11  and  C_12
REMARK    9  A    between atoms: C_12  and  C_13
REMARK   10  A    between atoms: C_13  and  C_14
REMARK   11  A    between atoms: C_15  and  C_16
REMARK                            x       y       z     vdW  Elec       q    Type
REMARK                         _______ _______ _______ _____ _____    ______ ____
ROOT
ATOM      1  C   UNL     1      46.381  81.116  40.962  0.00  0.00    +0.029 C 
ENDROOT
BRANCH   1   2
ATOM      2  C   UNL     1      45.552  80.873  39.781  0.00  0.00    -0.016 C 
ATOM      3  C   UNL     1      44.462  80.138  39.788  0.00  0.00    -0.032 C 
BRANCH   2   4
ATOM      4  C   UNL     1      45.980  81.433  38.444  0.00  0.00    +0.204 C 
ATOM      5  O   UNL     1      44.940  82.292  38.008  0.00  0.00    -0.216 OA
ENDBRANCH   2   4
BRANCH   3   6
ATOM      6  C   UNL     1      43.839  79.569  38.623  0.00  0.00    +0.030 C 
BRANCH   6   7
ATOM      7  C   UNL     1      43.613  78.104  38.588  0.00  0.00    +0.026 C 
BRANCH   7   8
ATOM      8  C   UNL     1      42.218  77.685  38.946  0.00  0.00    -0.045 C 
ATOM      9  C   UNL     1      41.285  77.678  38.006  0.00  0.00    +0.001 C 
ATOM     10  C   UNL     1      41.970  77.380  40.373  0.00  0.00    +0.026 C 
BRANCH   9  11
ATOM     11  C   UNL     1      39.991  77.014  38.179  0.00  0.00    +0.208 C 
ATOM     12  O   UNL     1      39.883  75.878  37.414  0.00  0.00    -0.215 OA
ENDBRANCH   9  11
ENDBRANCH   7   8
ENDBRANCH   6   7
ENDBRANCH   3   6
ENDBRANCH   1   2
BRANCH   1  13
ATOM     13  C   UNL     1      47.700  81.785  40.778  0.00  0.00    +0.030 C 
BRANCH  13  15
ATOM     14  C   UNL     1      48.572  82.871  42.814  0.00  0.00    -0.048 C 
ATOM     15  C   UNL     1      47.945  82.917  41.648  0.00  0.00    -0.034 C 
ATOM     16  C   UNL     1      49.044  81.515  43.300  0.00  0.00    +0.026 C 
BRANCH  14  17
ATOM     17  C   UNL     1      48.883  84.066  43.597  0.00  0.00    +0.026 C 
BRANCH  17  18
ATOM     18  C   UNL     1      50.063  84.823  43.123  0.00  0.00    +0.030 C 
BRANCH  18  21
ATOM     19  C   UNL     1      53.462  83.412  42.227  0.00  0.00    +0.026 C 
ATOM     20  C   UNL     1      52.249  84.243  42.168  0.00  0.00    -0.048 C 
ATOM     21  C   UNL     1      51.306  84.043  43.119  0.00  0.00    -0.034 C 
ATOM     22  C   UNL     1      52.034  85.263  41.131  0.00  0.00    +0.026 C 
ENDBRANCH  18  21
ENDBRANCH  17  18
ENDBRANCH  14  17
ENDBRANCH  13  15
ENDBRANCH   1  13
TORSDOF 11
