REMARK  Name = Plazomicin
REMARK  13 active torsions:
REMARK  status: ('A' for Active; 'I' for Inactive)
REMARK    1  A    between atoms: C_5  and  O_11
REMARK    2  A    between atoms: C_7  and  N_8
REMARK    3  A    between atoms: O_11  and  C_12
REMARK    4  A    between atoms: C_13  and  N_33
REMARK    5  A    between atoms: C_16  and  O_19
REMARK    6  A    between atoms: O_19  and  C_20
REMARK    7  A    between atoms: C_24  and  C_26
REMARK    8  A    between atoms: C_26  and  N_27
REMARK    9  A    between atoms: N_27  and  C_28
REMARK   10  A    between atoms: C_28  and  C_29
REMARK   11  A    between atoms: C_34  and  C_36
REMARK   12  A    between atoms: C_36  and  C_37
REMARK   13  A    between atoms: C_37  and  C_38
REMARK                            x       y       z     vdW  Elec       q    Type
REMARK                         _______ _______ _______ _____ _____    ______ ____
ROOT
ATOM      1  C   UNL     1      43.934  77.590  40.236  0.00  0.00    +0.170 C 
ATOM      2  C   UNL     1      44.794  78.543  39.405  0.00  0.00    +0.127 C 
ATOM      3  C   UNL     1      44.439  78.575  37.962  0.00  0.00    +0.046 C 
ATOM      4  C   UNL     1      42.987  78.824  37.782  0.00  0.00    +0.123 C 
ATOM      5  C   UNL     1      42.217  77.747  38.508  0.00  0.00    +0.169 C 
ATOM      6  C   UNL     1      42.457  77.829  39.990  0.00  0.00    +0.209 C 
ATOM      7  O   UNL     1      42.118  79.032  40.553  0.00  0.00    -0.218 OA
ATOM      8  N   UNL     1      42.617  80.151  38.231  0.00  0.00    -0.130 NA
ENDROOT
BRANCH   2   9
ATOM      9  N   UNL     1      44.830  79.840  40.033  0.00  0.00    -0.202 NA
ATOM     10  C   UNL     1      45.810  80.813  39.700  0.00  0.00    +0.272 C 
ATOM     11  O   UNL     1      45.725  81.418  38.600  0.00  0.00    -0.271 OA
BRANCH  10  12
ATOM     12  C   UNL     1      46.909  81.104  40.638  0.00  0.00    +0.231 C 
ATOM     13  O   UNL     1      46.372  81.355  41.900  0.00  0.00    -0.213 OA
BRANCH  12  14
ATOM     14  C   UNL     1      47.729  82.302  40.208  0.00  0.00    +0.063 C 
BRANCH  14  15
ATOM     15  C   UNL     1      48.528  82.808  41.390  0.00  0.00    +0.112 C 
ATOM     16  N   UNL     1      49.944  82.781  41.078  0.00  0.00    -0.131 NA
ENDBRANCH  14  15
ENDBRANCH  12  14
ENDBRANCH  10  12
ENDBRANCH   2   9
BRANCH   1  17
ATOM     17  O   UNL     1      44.287  77.847  41.543  0.00  0.00    -0.327 OA
BRANCH  17  22
ATOM     18  C   UNL     1      45.539  74.007  43.360  0.00  0.00    +0.037 C 
ATOM     19  C   UNL     1      46.612  75.053  43.294  0.00  0.00    +0.171 C 
ATOM     20  C   UNL     1      46.893  75.517  41.894  0.00  0.00    +0.176 C 
ATOM     21  O   UNL     1      46.318  76.751  41.609  0.00  0.00    -0.326 OA
ATOM     22  C   UNL     1      45.040  76.866  42.146  0.00  0.00    +0.268 C 
ATOM     23  C   UNL     1      45.141  76.975  43.626  0.00  0.00    +0.226 C 
ATOM     24  C   UNL     1      46.337  76.246  44.172  0.00  0.00    +0.138 C 
ATOM     25  O   UNL     1      44.020  76.525  44.310  0.00  0.00    -0.216 OA
ATOM     26  O   UNL     1      47.782  74.457  43.783  0.00  0.00    -0.222 OA
BRANCH  24  27
ATOM     27  N   UNL     1      46.200  75.873  45.565  0.00  0.00    -0.213 NA
ATOM     28  C   UNL     1      46.158  77.029  46.439  0.00  0.00    +0.108 C 
ENDBRANCH  24  27
ENDBRANCH  17  22
ENDBRANCH   1  17
BRANCH   5  29
ATOM     29  O   UNL     1      40.938  77.770  38.107  0.00  0.00    -0.318 OA
BRANCH  29  30
ATOM     30  C   UNL     1      40.433  76.666  37.473  0.00  0.00    +0.306 C 
ATOM     31  C   UNL     1      39.141  77.018  36.791  0.00  0.00    +0.166 C 
ATOM     32  C   UNL     1      38.389  75.707  36.545  0.00  0.00    +0.054 C 
ATOM     33  C   UNL     1      37.970  75.248  37.927  0.00  0.00    +0.009 C 
ATOM     34  C   UNL     1      38.906  75.263  38.861  0.00  0.00    +0.132 C 
ATOM     35  O   UNL     1      40.179  75.700  38.464  0.00  0.00    -0.455 OA
ATOM     36  N   UNL     1      39.317  77.743  35.549  0.00  0.00    -0.126 NA
BRANCH  34  37
ATOM     37  C   UNL     1      38.650  74.850  40.262  0.00  0.00    +0.152 C 
BRANCH  37  38
ATOM     38  N   UNL     1      39.107  73.546  40.616  0.00  0.00    -0.207 NA
BRANCH  38  39
ATOM     39  C   UNL     1      40.443  73.457  41.106  0.00  0.00    +0.125 C 
BRANCH  39  40
ATOM     40  C   UNL     1      40.477  73.292  42.621  0.00  0.00    +0.201 C 
ATOM     41  O   UNL     1      41.798  73.329  43.086  0.00  0.00    -0.219 OA
ENDBRANCH  39  40
ENDBRANCH  38  39
ENDBRANCH  37  38
ENDBRANCH  34  37
ENDBRANCH  29  30
ENDBRANCH   5  29
TORSDOF 13
