REMARK  Name = Plecanatide
REMARK  28 active torsions:
REMARK  status: ('A' for Active; 'I' for Inactive)
REMARK    1  A    between atoms: CA_11  and  N_88
REMARK    2  A    between atoms: CA_15  and  CB_83
REMARK    3  A    between atoms: CA_19  and  CB_79
REMARK    4  A    between atoms: CA_28  and  C_43
REMARK    5  A    between atoms: CA_36  and  CB_40
REMARK    6  A    between atoms: N_45  and  CA_46
REMARK    7  A    between atoms: CA_46  and  CB_47
REMARK    8  A    between atoms: CA_46  and  C_51
REMARK    9  A    between atoms: CB_47  and  CG_48
REMARK   10  A    between atoms: CA_57  and  CB_76
REMARK   11  A    between atoms: CA_61  and  CB_72
REMARK   12  A    between atoms: CA_65  and  CB_69
REMARK   13  A    between atoms: CB_72  and  CG_73
REMARK   14  A    between atoms: CB_79  and  CG_80
REMARK   15  A    between atoms: CB_83  and  CG_84
REMARK   16  A    between atoms: CG_84  and  CD_85
REMARK   17  A    between atoms: C_89  and  CA_91
REMARK   18  A    between atoms: CA_91  and  CB_92
REMARK   19  A    between atoms: CA_91  and  N_97
REMARK   20  A    between atoms: CB_92  and  CG_93
REMARK   21  A    between atoms: CG_93  and  CD_94
REMARK   22  A    between atoms: C_98  and  CA_100
REMARK   23  A    between atoms: CA_100  and  CB_101
REMARK   24  A    between atoms: CA_100  and  N_105
REMARK   25  A    between atoms: CB_101  and  CG_102
REMARK   26  A    between atoms: C_106  and  CA_108
REMARK   27  A    between atoms: CA_108  and  CB_109
REMARK   28  A    between atoms: CB_109  and  CG_110
REMARK                            x       y       z     vdW  Elec       q    Type
REMARK                         _______ _______ _______ _____ _____    ______ ____
ROOT
ATOM      1  CB  ALA A  11      43.410  74.778  48.088  0.00  0.00    +0.033 C 
ATOM      2  CA  ALA A  11      44.822  75.304  47.777  0.00  0.00    +0.173 C 
ATOM      3  C   ALA A  11      44.816  75.591  46.304  0.00  0.00    +0.262 C 
ATOM      4  O   ALA A  11      44.274  76.716  46.006  0.00  0.00    -0.271 OA
ATOM      5  N   CYS A  12      45.339  74.740  45.310  0.00  0.00    -0.195 NA
ATOM      6  CA  CYS A  12      44.941  73.373  45.048  0.00  0.00    +0.184 C 
ATOM      7  CB  CYS A  12      43.849  73.482  43.971  0.00  0.00    +0.100 C 
ATOM      8  SG  CYS A  12      43.181  75.147  43.909  0.00  0.00    -0.080 S 
ATOM      9  SG  CYS A   4      43.698  76.226  42.179  0.00  0.00    -0.080 S 
ATOM     10  CB  CYS A   4      45.273  77.106  42.336  0.00  0.00    +0.100 C 
ATOM     11  CA  CYS A   4      45.270  78.467  41.704  0.00  0.00    +0.184 C 
ATOM     12  C   CYS A   4      46.119  79.460  42.414  0.00  0.00    +0.263 C 
ATOM     13  O   CYS A   4      45.838  79.603  43.656  0.00  0.00    -0.271 OA
ATOM     14  N   GLU A   5      47.159  80.220  41.850  0.00  0.00    -0.196 NA
ATOM     15  CA  GLU A   5      48.102  79.711  40.934  0.00  0.00    +0.173 C 
ATOM     16  C   GLU A   5      49.545  79.902  41.147  0.00  0.00    +0.262 C 
ATOM     17  O   GLU A   5      50.135  79.340  40.097  0.00  0.00    -0.271 OA
ATOM     18  N   LEU A   6      50.290  80.509  42.162  0.00  0.00    -0.196 NA
ATOM     19  CA  LEU A   6      50.949  79.970  43.337  0.00  0.00    +0.173 C 
ATOM     20  C   LEU A   6      50.189  78.987  44.121  0.00  0.00    +0.262 C 
ATOM     21  O   LEU A   6      48.938  79.332  44.197  0.00  0.00    -0.271 OA
ATOM     22  N   CYS A   7      50.528  77.818  44.767  0.00  0.00    -0.195 NA
ATOM     23  CA  CYS A   7      51.227  77.453  45.953  0.00  0.00    +0.184 C 
ATOM     24  CB  CYS A   7      52.031  76.162  45.687  0.00  0.00    +0.100 C 
ATOM     25  SG  CYS A   7      50.862  75.035  44.853  0.00  0.00    -0.080 S 
ATOM     26  SG  CYS A  15      51.796  74.272  43.087  0.00  0.00    -0.080 S 
ATOM     27  CB  CYS A  15      52.844  72.855  43.559  0.00  0.00    +0.100 C 
ATOM     28  CA  CYS A  15      51.986  71.744  44.142  0.00  0.00    +0.184 C 
ATOM     29  N   CYS A  15      50.704  71.678  43.466  0.00  0.00    -0.195 NA
ATOM     30  C   GLY A  14      49.630  70.917  43.995  0.00  0.00    +0.264 C 
ATOM     31  O   GLY A  14      48.925  70.187  43.222  0.00  0.00    -0.271 OA
ATOM     32  CA  GLY A  14      49.253  70.908  45.433  0.00  0.00    +0.201 C 
ATOM     33  N   GLY A  14      48.614  69.641  45.731  0.00  0.00    -0.194 NA
ATOM     34  C   THR A  13      47.278  69.331  45.357  0.00  0.00    +0.264 C 
ATOM     35  O   THR A  13      47.075  68.143  44.945  0.00  0.00    -0.271 OA
ATOM     36  CA  THR A  13      46.155  70.316  45.432  0.00  0.00    +0.203 C 
ATOM     37  N   THR A  13      46.168  71.242  44.314  0.00  0.00    -0.194 NA
ATOM     38  C   CYS A  12      46.065  72.636  44.385  0.00  0.00    +0.263 C 
ATOM     39  O   CYS A  12      46.981  73.343  43.855  0.00  0.00    -0.271 OA
ATOM     40  C   CYS A   7      52.053  78.436  46.643  0.00  0.00    +0.263 C 
ATOM     41  O   CYS A   7      53.304  78.336  46.270  0.00  0.00    -0.271 OA
ATOM     42  N   VAL A   8      51.685  79.405  47.593  0.00  0.00    -0.196 NA
ATOM     43  CA  VAL A   8      51.494  79.213  49.049  0.00  0.00    +0.173 C 
ATOM     44  C   VAL A   8      51.279  77.822  49.408  0.00  0.00    +0.262 C 
ATOM     45  O   VAL A   8      52.207  77.016  48.972  0.00  0.00    -0.271 OA
ATOM     46  N   ASN A   9      50.200  77.295  50.155  0.00  0.00    -0.196 NA
ATOM     47  CA  ASN A   9      49.860  77.519  51.506  0.00  0.00    +0.182 C 
ATOM     48  C   ASN A   9      48.454  77.525  51.911  0.00  0.00    +0.262 C 
ATOM     49  O   ASN A   9      48.360  77.701  53.201  0.00  0.00    -0.271 OA
ATOM     50  N   VAL A  10      47.262  77.392  51.245  0.00  0.00    -0.196 NA
ATOM     51  CA  VAL A  10      46.763  76.340  50.376  0.00  0.00    +0.173 C 
ATOM     52  C   VAL A  10      46.180  76.977  49.155  0.00  0.00    +0.262 C 
ATOM     53  O   VAL A  10      46.861  78.007  48.770  0.00  0.00    -0.271 OA
ATOM     54  N   ALA A  11      45.039  76.570  48.453  0.00  0.00    -0.196 NA
ENDROOT
BRANCH  36  55
ATOM     55  CB  THR A  13      44.859  69.508  45.296  0.00  0.00    +0.181 C 
ATOM     56  CG2 THR A  13      43.641  70.395  45.401  0.00  0.00    +0.038 C 
ATOM     57  OG1 THR A  13      44.792  68.807  44.121  0.00  0.00    -0.221 OA
ENDBRANCH  36  55
BRANCH  11  58
ATOM     58  N   CYS A   4      43.869  78.915  41.617  0.00  0.00    -0.195 NA
ATOM     59  C   GLU A   3      43.166  78.903  40.403  0.00  0.00    +0.262 C 
ATOM     60  O   GLU A   3      42.666  79.963  39.977  0.00  0.00    -0.271 OA
BRANCH  59  61
ATOM     61  CA  GLU A   3      42.974  77.658  39.561  0.00  0.00    +0.173 C 
BRANCH  61  62
ATOM     62  N   GLU A   3      41.559  77.452  39.373  0.00  0.00    -0.196 NA
ATOM     63  C   ASP A   2      41.069  76.365  38.618  0.00  0.00    +0.262 C 
ATOM     64  O   ASP A   2      41.909  75.603  38.056  0.00  0.00    -0.271 OA
BRANCH  63  65
ATOM     65  CA  ASP A   2      39.645  76.073  38.444  0.00  0.00    +0.184 C 
BRANCH  65  66
ATOM     66  N   ASP A   2      39.327  74.961  37.566  0.00  0.00    -0.196 NA
ATOM     67  C   ASN A   1      38.703  75.168  36.300  0.00  0.00    +0.260 C 
ATOM     68  O   ASN A   1      38.445  76.385  36.025  0.00  0.00    -0.272 OA
BRANCH  67  69
ATOM     69  CA  ASN A   1      38.337  74.149  35.323  0.00  0.00    +0.178 C 
ATOM     70  N   ASN A   1      36.992  73.619  35.585  0.00  0.00    -0.123 NA
BRANCH  69  71
ATOM     71  CB  ASN A   1      38.455  74.589  33.917  0.00  0.00    +0.117 C 
BRANCH  71  72
ATOM     72  CG  ASN A   1      38.204  73.585  32.880  0.00  0.00    +0.263 C 
ATOM     73  OD1 ASN A   1      37.734  72.442  33.090  0.00  0.00    -0.272 OA
ATOM     74  ND2 ASN A   1      38.516  73.926  31.525  0.00  0.00    -0.088 NA
ENDBRANCH  71  72
ENDBRANCH  69  71
ENDBRANCH  67  69
ENDBRANCH  65  66
BRANCH  65  75
ATOM     75  CB  ASP A   2      38.989  75.815  39.819  0.00  0.00    +0.145 C 
BRANCH  75  76
ATOM     76  CG  ASP A   2      37.529  75.872  39.630  0.00  0.00    +0.367 C 
ATOM     77  OD1 ASP A   2      36.865  76.938  39.621  0.00  0.00    -0.246 OA
ATOM     78  OD2 ASP A   2      36.788  74.692  39.445  0.00  0.00    -0.246 OA
ENDBRANCH  75  76
ENDBRANCH  65  75
ENDBRANCH  63  65
ENDBRANCH  61  62
BRANCH  61  79
ATOM     79  CB  GLU A   3      43.784  77.741  38.322  0.00  0.00    +0.043 C 
BRANCH  79  80
ATOM     80  CG  GLU A   3      43.229  77.098  37.092  0.00  0.00    +0.116 C 
BRANCH  80  81
ATOM     81  CD  GLU A   3      44.060  77.257  35.886  0.00  0.00    +0.365 C 
ATOM     82  OE1 GLU A   3      43.591  77.228  34.741  0.00  0.00    -0.246 OA
ATOM     83  OE2 GLU A   3      45.443  77.448  36.026  0.00  0.00    -0.246 OA
ENDBRANCH  80  81
ENDBRANCH  79  80
ENDBRANCH  61  79
ENDBRANCH  59  61
ENDBRANCH  11  58
BRANCH  28  84
ATOM     84  C   CYS A  15      52.655  70.435  44.010  0.00  0.00    +0.263 C 
ATOM     85  O   CYS A  15      51.966  69.403  43.859  0.00  0.00    -0.271 OA
ATOM     86  N   LEU A  16      54.065  70.342  44.054  0.00  0.00    -0.194 NA
BRANCH  86  87
ATOM     87  CA  LEU A  16      54.800  70.154  42.743  0.00  0.00    +0.198 C 
BRANCH  87  88
ATOM     88  C   LEU A  16      56.055  69.515  43.114  0.00  0.00    +0.384 C 
ATOM     89  O   LEU A  16      56.682  68.671  42.428  0.00  0.00    -0.244 OA
ATOM     90  OXT LEU A  16      56.691  69.817  44.344  0.00  0.00    -0.244 OA
ENDBRANCH  87  88
BRANCH  87  91
ATOM     91  CB  LEU A  16      54.859  71.480  42.095  0.00  0.00    +0.033 C 
BRANCH  91  92
ATOM     92  CG  LEU A  16      55.223  71.580  40.684  0.00  0.00    +0.002 C 
ATOM     93  CD1 LEU A  16      55.916  72.830  40.270  0.00  0.00    +0.000 C 
ATOM     94  CD2 LEU A  16      53.928  71.457  39.842  0.00  0.00    +0.000 C 
ENDBRANCH  91  92
ENDBRANCH  87  91
ENDBRANCH  86  87
ENDBRANCH  28  84
BRANCH  51  95
ATOM     95  CB  VAL A  10      45.749  75.492  51.127  0.00  0.00    +0.029 C 
ATOM     96  CG1 VAL A  10      45.352  74.245  50.417  0.00  0.00    +0.002 C 
ATOM     97  CG2 VAL A  10      46.273  75.098  52.502  0.00  0.00    +0.002 C 
ENDBRANCH  51  95
BRANCH  43  98
ATOM     98  CB  VAL A   8      52.691  79.879  49.723  0.00  0.00    +0.029 C 
ATOM     99  CG1 VAL A   8      52.686  81.365  49.665  0.00  0.00    +0.002 C 
ATOM    100  CG2 VAL A   8      54.014  79.270  49.355  0.00  0.00    +0.002 C 
ENDBRANCH  43  98
BRANCH  47 101
ATOM    101  CB  ASN A   9      50.672  76.650  52.467  0.00  0.00    +0.120 C 
BRANCH 101 102
ATOM    102  CG  ASN A   9      51.165  75.428  51.840  0.00  0.00    +0.263 C 
ATOM    103  OD1 ASN A   9      51.987  74.651  52.377  0.00  0.00    -0.272 OA
ATOM    104  ND2 ASN A   9      50.696  75.087  50.547  0.00  0.00    -0.088 NA
ENDBRANCH 101 102
ENDBRANCH  47 101
BRANCH  15 105
ATOM    105  CB  GLU A   5      47.698  80.143  39.541  0.00  0.00    +0.043 C 
BRANCH 105 106
ATOM    106  CG  GLU A   5      46.461  80.943  39.410  0.00  0.00    +0.116 C 
BRANCH 106 107
ATOM    107  CD  GLU A   5      45.997  81.387  38.116  0.00  0.00    +0.365 C 
ATOM    108  OE1 GLU A   5      46.610  81.864  37.148  0.00  0.00    -0.246 OA
ATOM    109  OE2 GLU A   5      44.590  81.270  37.874  0.00  0.00    -0.246 OA
ENDBRANCH 106 107
ENDBRANCH 105 106
ENDBRANCH  15 105
BRANCH  19 110
ATOM    110  CB  LEU A   6      52.365  79.620  43.064  0.00  0.00    +0.031 C 
BRANCH 110 111
ATOM    111  CG  LEU A   6      52.661  78.591  42.046  0.00  0.00    +0.002 C 
ATOM    112  CD1 LEU A   6      52.142  77.205  42.317  0.00  0.00    +0.000 C 
ATOM    113  CD2 LEU A   6      52.225  78.971  40.644  0.00  0.00    +0.000 C 
ENDBRANCH 110 111
ENDBRANCH  19 110
TORSDOF 28
