REMARK  Name = Plerixafor
REMARK  4 active torsions:
REMARK  status: ('A' for Active; 'I' for Inactive)
REMARK    1  A    between atoms: N_10  and  C_15
REMARK    2  A    between atoms: C_15  and  C_16
REMARK    3  A    between atoms: C_19  and  C_22
REMARK    4  A    between atoms: C_22  and  N_23
REMARK                            x       y       z     vdW  Elec       q    Type
REMARK                         _______ _______ _______ _____ _____    ______ ____
ROOT
ATOM      1  C   UNL     1      43.426  78.926  39.227  0.00  0.00    -0.006 A 
ATOM      2  C   UNL     1      43.766  78.092  40.262  0.00  0.00    -0.003 A 
ATOM      3  C   UNL     1      44.711  78.473  41.187  0.00  0.00    -0.003 A 
ATOM      4  C   UNL     1      45.360  79.690  41.129  0.00  0.00    -0.006 A 
ATOM      5  C   UNL     1      45.015  80.524  40.087  0.00  0.00    -0.003 A 
ATOM      6  C   UNL     1      44.054  80.144  39.142  0.00  0.00    -0.003 A 
ENDROOT
BRANCH   1   7
ATOM      7  C   UNL     1      42.418  78.574  38.196  0.00  0.00    +0.099 C 
BRANCH   7  17
ATOM      8  C   UNL     1      38.516  73.557  36.050  0.00  0.00    +0.038 C 
ATOM      9  C   UNL     1      39.032  72.469  36.958  0.00  0.00    +0.090 C 
ATOM     10  N   UNL     1      38.566  72.615  38.311  0.00  0.00    -0.216 NA
ATOM     11  C   UNL     1      39.553  72.203  39.297  0.00  0.00    +0.107 C 
ATOM     12  C   UNL     1      39.657  73.224  40.410  0.00  0.00    +0.107 C 
ATOM     13  N   UNL     1      40.621  74.276  40.050  0.00  0.00    -0.216 NA
ATOM     14  C   UNL     1      40.122  75.498  40.599  0.00  0.00    +0.090 C 
ATOM     15  C   UNL     1      40.957  76.706  40.350  0.00  0.00    +0.036 C 
ATOM     16  C   UNL     1      42.122  76.516  39.440  0.00  0.00    +0.074 C 
ATOM     17  N   UNL     1      42.047  77.198  38.190  0.00  0.00    -0.268 NA
ATOM     18  C   UNL     1      40.744  77.047  37.583  0.00  0.00    +0.091 C 
ATOM     19  C   UNL     1      40.800  76.480  36.183  0.00  0.00    +0.106 C 
ATOM     20  N   UNL     1      40.338  75.128  36.094  0.00  0.00    -0.217 NA
ATOM     21  C   UNL     1      38.974  74.933  36.484  0.00  0.00    +0.090 C 
ENDBRANCH   7  17
ENDBRANCH   1   7
BRANCH   4  22
ATOM     22  C   UNL     1      46.361  80.052  42.143  0.00  0.00    +0.099 C 
BRANCH  22  23
ATOM     23  N   UNL     1      47.372  80.950  41.752  0.00  0.00    -0.268 NA
ATOM     24  C   UNL     1      48.541  80.433  41.152  0.00  0.00    +0.074 C 
ATOM     25  C   UNL     1      49.761  80.672  42.040  0.00  0.00    +0.036 C 
ATOM     26  C   UNL     1      51.047  80.324  41.358  0.00  0.00    +0.090 C 
ATOM     27  N   UNL     1      51.722  81.466  40.782  0.00  0.00    -0.216 NA
ATOM     28  C   UNL     1      51.875  82.567  41.701  0.00  0.00    +0.107 C 
ATOM     29  C   UNL     1      51.141  83.788  41.257  0.00  0.00    +0.107 C 
ATOM     30  N   UNL     1      50.461  84.485  42.355  0.00  0.00    -0.216 NA
ATOM     31  C   UNL     1      49.565  85.428  41.752  0.00  0.00    +0.090 C 
ATOM     32  C   UNL     1      48.383  85.805  42.563  0.00  0.00    +0.038 C 
ATOM     33  C   UNL     1      47.803  84.693  43.401  0.00  0.00    +0.090 C 
ATOM     34  N   UNL     1      46.506  84.279  42.970  0.00  0.00    -0.217 NA
ATOM     35  C   UNL     1      46.317  82.840  42.916  0.00  0.00    +0.106 C 
ATOM     36  C   UNL     1      47.558  82.139  42.488  0.00  0.00    +0.091 C 
ENDBRANCH  22  23
ENDBRANCH   4  22
TORSDOF 4
