REMARK  Name = Polidocanol
REMARK  37 active torsions:
REMARK  status: ('A' for Active; 'I' for Inactive)
REMARK    1  A    between atoms: C_2  and  C_3
REMARK    2  A    between atoms: C_3  and  C_4
REMARK    3  A    between atoms: C_4  and  C_5
REMARK    4  A    between atoms: C_5  and  C_6
REMARK    5  A    between atoms: C_6  and  C_7
REMARK    6  A    between atoms: C_7  and  C_8
REMARK    7  A    between atoms: C_8  and  C_9
REMARK    8  A    between atoms: C_9  and  C_10
REMARK    9  A    between atoms: C_10  and  C_11
REMARK   10  A    between atoms: C_11  and  C_12
REMARK   11  A    between atoms: C_12  and  O_13
REMARK   12  A    between atoms: O_13  and  C_14
REMARK   13  A    between atoms: C_14  and  C_15
REMARK   14  A    between atoms: C_15  and  O_16
REMARK   15  A    between atoms: O_16  and  C_17
REMARK   16  A    between atoms: C_17  and  C_18
REMARK   17  A    between atoms: C_18  and  O_19
REMARK   18  A    between atoms: O_19  and  C_20
REMARK   19  A    between atoms: C_20  and  C_21
REMARK   20  A    between atoms: C_21  and  O_22
REMARK   21  A    between atoms: O_22  and  C_23
REMARK   22  A    between atoms: C_23  and  C_24
REMARK   23  A    between atoms: C_24  and  O_25
REMARK   24  A    between atoms: O_25  and  C_26
REMARK   25  A    between atoms: C_26  and  C_27
REMARK   26  A    between atoms: C_27  and  O_28
REMARK   27  A    between atoms: O_28  and  C_29
REMARK   28  A    between atoms: C_29  and  C_30
REMARK   29  A    between atoms: C_30  and  O_31
REMARK   30  A    between atoms: O_31  and  C_32
REMARK   31  A    between atoms: C_32  and  C_33
REMARK   32  A    between atoms: C_33  and  O_34
REMARK   33  A    between atoms: O_34  and  C_35
REMARK   34  A    between atoms: C_35  and  C_36
REMARK   35  A    between atoms: C_36  and  O_37
REMARK   36  A    between atoms: O_37  and  C_38
REMARK   37  A    between atoms: C_38  and  C_39
REMARK                            x       y       z     vdW  Elec       q    Type
REMARK                         _______ _______ _______ _____ _____    ______ ____
ROOT
ATOM      1  C   UNL     1      41.224  73.686  38.492  0.00  0.00    +0.174 C 
ENDROOT
BRANCH   1   2
ATOM      2  C   UNL     1      41.062  73.062  39.880  0.00  0.00    +0.174 C 
BRANCH   2   3
ATOM      3  O   UNL     1      42.325  72.514  40.220  0.00  0.00    -0.348 OA
BRANCH   3   4
ATOM      4  C   UNL     1      42.486  72.794  41.559  0.00  0.00    +0.174 C 
BRANCH   4   5
ATOM      5  C   UNL     1      43.587  73.746  41.796  0.00  0.00    +0.174 C 
BRANCH   5   6
ATOM      6  O   UNL     1      44.780  73.289  42.227  0.00  0.00    -0.348 OA
BRANCH   6   7
ATOM      7  C   UNL     1      45.855  73.278  41.398  0.00  0.00    +0.174 C 
BRANCH   7   8
ATOM      8  C   UNL     1      47.019  72.697  42.240  0.00  0.00    +0.174 C 
BRANCH   8   9
ATOM      9  O   UNL     1      47.729  73.731  42.787  0.00  0.00    -0.348 OA
BRANCH   9  10
ATOM     10  C   UNL     1      47.776  73.827  44.146  0.00  0.00    +0.174 C 
BRANCH  10  11
ATOM     11  C   UNL     1      48.924  72.973  44.629  0.00  0.00    +0.174 C 
BRANCH  11  12
ATOM     12  O   UNL     1      48.666  71.653  44.797  0.00  0.00    -0.348 OA
BRANCH  12  13
ATOM     13  C   UNL     1      49.216  70.814  43.873  0.00  0.00    +0.174 C 
BRANCH  13  14
ATOM     14  C   UNL     1      48.200  70.641  42.687  0.00  0.00    +0.174 C 
BRANCH  14  15
ATOM     15  O   UNL     1      48.647  69.746  41.877  0.00  0.00    -0.348 OA
BRANCH  15  16
ATOM     16  C   UNL     1      48.494  68.525  41.547  0.00  0.00    +0.174 C 
BRANCH  16  17
ATOM     17  C   UNL     1      47.603  68.047  40.456  0.00  0.00    +0.174 C 
BRANCH  17  18
ATOM     18  O   UNL     1      47.259  66.805  40.258  0.00  0.00    -0.348 OA
BRANCH  18  19
ATOM     19  C   UNL     1      46.690  65.918  41.049  0.00  0.00    +0.178 C 
BRANCH  19  20
ATOM     20  C   UNL     1      45.202  65.680  40.642  0.00  0.00    +0.214 C 
ATOM     21  O   UNL     1      44.655  64.907  41.660  0.00  0.00    -0.218 OA
ENDBRANCH  19  20
ENDBRANCH  18  19
ENDBRANCH  17  18
ENDBRANCH  16  17
ENDBRANCH  15  16
ENDBRANCH  14  15
ENDBRANCH  13  14
ENDBRANCH  12  13
ENDBRANCH  11  12
ENDBRANCH  10  11
ENDBRANCH   9  10
ENDBRANCH   8   9
ENDBRANCH   7   8
ENDBRANCH   6   7
ENDBRANCH   5   6
ENDBRANCH   4   5
ENDBRANCH   3   4
ENDBRANCH   2   3
ENDBRANCH   1   2
BRANCH   1  22
ATOM     22  O   UNL     1      40.460  74.784  38.334  0.00  0.00    -0.348 OA
BRANCH  22  23
ATOM     23  C   UNL     1      40.729  75.956  38.932  0.00  0.00    +0.174 C 
BRANCH  23  24
ATOM     24  C   UNL     1      41.195  77.010  37.962  0.00  0.00    +0.174 C 
BRANCH  24  25
ATOM     25  O   UNL     1      41.953  77.952  38.558  0.00  0.00    -0.348 OA
BRANCH  25  26
ATOM     26  C   UNL     1      43.282  77.668  38.777  0.00  0.00    +0.174 C 
BRANCH  26  27
ATOM     27  C   UNL     1      44.154  78.627  38.029  0.00  0.00    +0.174 C 
BRANCH  27  28
ATOM     28  O   UNL     1      43.941  79.907  38.479  0.00  0.00    -0.351 OA
BRANCH  28  29
ATOM     29  C   UNL     1      44.384  80.160  39.757  0.00  0.00    +0.142 C 
BRANCH  29  30
ATOM     30  C   UNL     1      45.381  81.314  39.748  0.00  0.00    +0.032 C 
BRANCH  30  31
ATOM     31  C   UNL     1      46.761  80.722  39.881  0.00  0.00    +0.003 C 
BRANCH  31  32
ATOM     32  C   UNL     1      47.411  81.272  41.109  0.00  0.00    +0.000 C 
BRANCH  32  33
ATOM     33  C   UNL     1      48.150  80.259  41.912  0.00  0.00    +0.000 C 
BRANCH  33  34
ATOM     34  C   UNL     1      49.409  79.741  41.303  0.00  0.00    +0.000 C 
BRANCH  34  35
ATOM     35  C   UNL     1      50.651  80.380  41.850  0.00  0.00    +0.000 C 
BRANCH  35  36
ATOM     36  C   UNL     1      50.441  80.720  43.325  0.00  0.00    +0.000 C 
BRANCH  36  37
ATOM     37  C   UNL     1      51.712  81.190  43.913  0.00  0.00    +0.000 C 
BRANCH  37  38
ATOM     38  C   UNL     1      51.887  82.610  44.257  0.00  0.00    +0.000 C 
BRANCH  38  40
ATOM     39  C   UNL     1      53.325  84.317  45.440  0.00  0.00    +0.000 C 
ATOM     40  C   UNL     1      53.165  82.942  44.920  0.00  0.00    +0.000 C 
ENDBRANCH  38  40
ENDBRANCH  37  38
ENDBRANCH  36  37
ENDBRANCH  35  36
ENDBRANCH  34  35
ENDBRANCH  33  34
ENDBRANCH  32  33
ENDBRANCH  31  32
ENDBRANCH  30  31
ENDBRANCH  29  30
ENDBRANCH  28  29
ENDBRANCH  27  28
ENDBRANCH  26  27
ENDBRANCH  25  26
ENDBRANCH  24  25
ENDBRANCH  23  24
ENDBRANCH  22  23
ENDBRANCH   1  22
TORSDOF 37
