REMARK  Name = Polyestradiol_Phosphate
REMARK  2 active torsions:
REMARK  status: ('A' for Active; 'I' for Inactive)
REMARK    1  A    between atoms: C_10  and  O_11
REMARK    2  A    between atoms: O_11  and  P_12
REMARK                            x       y       z     vdW  Elec       q    Type
REMARK                         _______ _______ _______ _____ _____    ______ ____
ROOT
ATOM      1  C   UNL     1      50.231  81.151  40.514  0.00  0.00    +0.002 C 
ATOM      2  C   UNL     1      48.802  81.251  41.045  0.00  0.00    +0.026 C 
ATOM      3  C   UNL     1      48.008  81.999  40.051  0.00  0.00    +0.003 C 
ATOM      4  C   UNL     1      46.565  81.667  39.975  0.00  0.00    +0.004 C 
ATOM      5  C   UNL     1      46.433  80.155  39.927  0.00  0.00    +0.022 C 
ATOM      6  C   UNL     1      46.864  79.675  41.297  0.00  0.00    +0.004 C 
ATOM      7  C   UNL     1      48.344  79.890  41.388  0.00  0.00    +0.003 C 
ATOM      8  C   UNL     1      48.870  79.636  42.783  0.00  0.00    +0.003 C 
ATOM      9  C   UNL     1      49.424  80.953  43.285  0.00  0.00    +0.030 C 
ATOM     10  C   UNL     1      48.775  81.957  42.384  0.00  0.00    +0.126 C 
ATOM     11  C   UNL     1      46.507  78.229  41.410  0.00  0.00    +0.005 C 
ATOM     12  C   UNL     1      44.997  78.119  41.477  0.00  0.00    +0.026 C 
ATOM     13  C   UNL     1      44.385  78.755  40.262  0.00  0.00    -0.023 A 
ATOM     14  C   UNL     1      45.087  79.706  39.560  0.00  0.00    -0.026 A 
ATOM     15  C   UNL     1      44.490  80.266  38.450  0.00  0.00    -0.001 A 
ATOM     16  C   UNL     1      43.226  79.914  38.018  0.00  0.00    +0.042 A 
ATOM     17  C   UNL     1      42.539  78.971  38.721  0.00  0.00    +0.195 A 
ATOM     18  C   UNL     1      43.118  78.398  39.835  0.00  0.00    +0.037 A 
ATOM     19  O   UNL     1      41.271  78.621  38.283  0.00  0.00    -0.287 OA
ENDROOT
BRANCH  10  20
ATOM     20  O   UNL     1      49.325  83.194  42.383  0.00  0.00    -0.273 OA
BRANCH  20  21
ATOM     21  P   UNL     1      50.969  83.280  42.556  0.00  0.00    +0.533 P 
ATOM     22  O   UNL     1      51.263  84.125  43.794  0.00  0.00    -0.222 OA
ATOM     23  O   UNL     1      51.697  84.120  41.253  0.00  0.00    -0.115 OA
ATOM     24  O   UNL     1      51.714  81.797  42.791  0.00  0.00    -0.115 OA
ENDBRANCH  20  21
ENDBRANCH  10  20
TORSDOF 2
