REMARK  Name = Polythiazide
REMARK  5 active torsions:
REMARK  status: ('A' for Active; 'I' for Inactive)
REMARK    1  A    between atoms: C_3  and  C_19
REMARK    2  A    between atoms: C_8  and  S_14
REMARK    3  A    between atoms: C_19  and  S_20
REMARK    4  A    between atoms: S_20  and  C_21
REMARK    5  A    between atoms: C_21  and  C_22
REMARK                            x       y       z     vdW  Elec       q    Type
REMARK                         _______ _______ _______ _____ _____    ______ ____
ROOT
ATOM      1  C   UNL     1      48.257  81.790  39.596  0.00  0.00    +0.117 C 
ATOM      2  N   UNL     1      46.948  81.882  40.124  0.00  0.00    -0.135 NA
ATOM      3  C   UNL     1      46.760  81.323  41.429  0.00  0.00    +0.182 C 
ATOM      4  N   UNL     1      46.482  79.917  41.458  0.00  0.00    -0.219 NA
ATOM      5  C   UNL     1      45.373  79.343  40.779  0.00  0.00    +0.086 A 
ATOM      6  C   UNL     1      44.763  78.171  41.240  0.00  0.00    +0.030 A 
ATOM      7  C   UNL     1      43.692  77.652  40.547  0.00  0.00    +0.078 A 
ATOM      8  C   UNL     1      43.225  78.274  39.416  0.00  0.00    +0.137 A 
ATOM      9  C   UNL     1      43.843  79.430  38.980  0.00  0.00    +0.042 A 
ATOM     10  C   UNL     1      44.914  79.979  39.644  0.00  0.00    +0.138 A 
ATOM     11  S   UNL     1      45.695  81.456  39.076  0.00  0.00    +0.066 S 
ATOM     12  O   UNL     1      46.105  81.287  37.653  0.00  0.00    -0.153 OA
ATOM     13  O   UNL     1      44.625  82.534  39.155  0.00  0.00    -0.153 OA
ATOM     14 CL   UNL     1      42.939  76.186  41.135  0.00  0.00    -0.081 Cl
ENDROOT
BRANCH   8  15
ATOM     15  S   UNL     1      41.852  77.585  38.548  0.00  0.00    +0.094 S 
ATOM     16  O   UNL     1      41.483  78.503  37.432  0.00  0.00    -0.150 OA
ATOM     17  O   UNL     1      40.733  77.406  39.547  0.00  0.00    -0.150 OA
ATOM     18  N   UNL     1      42.323  76.056  37.937  0.00  0.00    +0.039 NA
ENDBRANCH   8  15
BRANCH   3  19
ATOM     19  C   UNL     1      47.911  81.608  42.366  0.00  0.00    +0.098 C 
BRANCH  19  20
ATOM     20  S   UNL     1      49.390  81.786  41.328  0.00  0.00    -0.128 S 
BRANCH  20  21
ATOM     21  C   UNL     1      50.114  83.424  41.463  0.00  0.00    +0.161 C 
BRANCH  21  22
ATOM     22  C   UNL     1      50.536  83.642  42.901  0.00  0.00    +0.408 C 
ATOM     23  F   UNL     1      51.013  82.447  43.406  0.00  0.00    -0.169 F 
ATOM     24  F   UNL     1      49.480  84.140  43.610  0.00  0.00    -0.169 F 
ATOM     25  F   UNL     1      51.549  84.582  42.929  0.00  0.00    -0.169 F 
ENDBRANCH  21  22
ENDBRANCH  20  21
ENDBRANCH  19  20
ENDBRANCH   3  19
TORSDOF 5
