REMARK  Name = Pomalidomide
REMARK  1 active torsions:
REMARK  status: ('A' for Active; 'I' for Inactive)
REMARK    1  A    between atoms: C_8  and  N_9
REMARK                            x       y       z     vdW  Elec       q    Type
REMARK                         _______ _______ _______ _____ _____    ______ ____
ROOT
ATOM      1  N   UNL     1      46.883  81.805  41.217  0.00  0.00    -0.216 N 
ATOM      2  C   UNL     1      46.643  82.963  42.002  0.00  0.00    +0.255 C 
ATOM      3  O   UNL     1      45.512  83.482  42.278  0.00  0.00    -0.269 OA
ATOM      4  C   UNL     1      47.940  83.463  42.445  0.00  0.00    +0.060 A 
ATOM      5  C   UNL     1      48.953  82.662  41.964  0.00  0.00    +0.075 A 
ATOM      6  C   UNL     1      48.285  81.607  41.183  0.00  0.00    +0.257 C 
ATOM      7  O   UNL     1      48.908  80.685  40.589  0.00  0.00    -0.269 OA
ATOM      8  C   UNL     1      50.290  82.907  42.233  0.00  0.00    +0.094 A 
ATOM      9  C   UNL     1      50.584  84.017  43.025  0.00  0.00    +0.018 A 
ATOM     10  C   UNL     1      49.589  84.832  43.517  0.00  0.00    +0.002 A 
ATOM     11  C   UNL     1      48.267  84.552  43.225  0.00  0.00    +0.005 A 
ATOM     12  N   UNL     1      51.329  82.083  41.738  0.00  0.00    -0.128 NA
ENDROOT
BRANCH   1  20
ATOM     13  C   UNL     1      45.978  79.561  40.846  0.00  0.00    +0.039 C 
ATOM     14  C   UNL     1      45.424  78.689  39.772  0.00  0.00    +0.089 C 
ATOM     15  C   UNL     1      44.433  79.349  38.902  0.00  0.00    +0.248 C 
ATOM     16  O   UNL     1      43.323  78.857  38.584  0.00  0.00    -0.273 OA
ATOM     17  N   UNL     1      44.787  80.646  38.395  0.00  0.00    -0.143 NA
ATOM     18  C   UNL     1      45.746  81.377  39.156  0.00  0.00    +0.266 C 
ATOM     19  O   UNL     1      46.440  82.254  38.601  0.00  0.00    -0.271 OA
ATOM     20  C   UNL     1      45.849  81.026  40.600  0.00  0.00    +0.162 C 
ENDBRANCH   1  20
TORSDOF 1
