REMARK  Name = Ponatinib
REMARK  7 active torsions:
REMARK  status: ('A' for Active; 'I' for Inactive)
REMARK    1  A    between atoms: C_3  and  C_29
REMARK    2  A    between atoms: C_5  and  C_8
REMARK    3  A    between atoms: N_10  and  C_11
REMARK    4  A    between atoms: C_13  and  C_25
REMARK    5  A    between atoms: C_14  and  C_17
REMARK    6  A    between atoms: C_17  and  N_18
REMARK    7  A    between atoms: C_30  and  C_31
REMARK                            x       y       z     vdW  Elec       q    Type
REMARK                         _______ _______ _______ _____ _____    ______ ____
ROOT
ATOM      1  C   UNL     1      50.919  82.097  46.162  0.00  0.00    +0.269 C 
ATOM      2  O   UNL     1      50.462  81.960  47.341  0.00  0.00    -0.268 OA
ATOM      3  N   UNL     1      52.056  81.286  45.867  0.00  0.00    -0.175 NA
ENDROOT
BRANCH   1   8
ATOM      4  C   UNL     1      48.543  85.832  42.565  0.00  0.00    +0.032 C 
ATOM      5  C   UNL     1      49.162  84.835  43.503  0.00  0.00    -0.014 A 
ATOM      6  C   UNL     1      48.931  83.503  43.370  0.00  0.00    +0.038 A 
ATOM      7  C   UNL     1      49.490  82.577  44.222  0.00  0.00    +0.013 A 
ATOM      8  C   UNL     1      50.305  83.011  45.236  0.00  0.00    +0.056 A 
ATOM      9  C   UNL     1      50.541  84.359  45.374  0.00  0.00    +0.004 A 
ATOM     10  C   UNL     1      49.990  85.290  44.533  0.00  0.00    -0.004 A 
BRANCH   6  11
ATOM     11  C   UNL     1      48.071  83.029  42.295  0.00  0.00    -0.059 C 
ATOM     12  C   UNL     1      47.347  82.644  41.393  0.00  0.00    -0.039 C 
BRANCH  12  13
ATOM     13  C   UNL     1      46.483  82.179  40.349  0.00  0.00    +0.145 A 
ATOM     14  C   UNL     1      46.316  82.733  39.079  0.00  0.00    +0.128 A 
ATOM     15  N   UNL     1      45.414  81.998  38.405  0.00  0.00    -0.223 NA
ATOM     16  C   UNL     1      45.009  81.003  39.205  0.00  0.00    +0.165 A 
ATOM     17  N   UNL     1      45.656  81.117  40.372  0.00  0.00    -0.203 N 
ATOM     18  N   UNL     1      45.408  80.228  41.327  0.00  0.00    -0.162 NA
ATOM     19  C   UNL     1      44.546  79.212  41.205  0.00  0.00    +0.121 A 
ATOM     20  C   UNL     1      43.854  79.052  40.017  0.00  0.00    +0.026 A 
ATOM     21  C   UNL     1      44.110  79.972  39.028  0.00  0.00    +0.040 A 
ENDBRANCH  12  13
ENDBRANCH   6  11
ENDBRANCH   1   8
BRANCH   3  22
ATOM     22  C   UNL     1      52.948  80.848  46.900  0.00  0.00    +0.074 A 
ATOM     23  C   UNL     1      53.617  81.730  47.721  0.00  0.00    +0.020 A 
ATOM     24  C   UNL     1      54.478  81.312  48.725  0.00  0.00    +0.070 A 
ATOM     25  C   UNL     1      54.700  79.968  48.942  0.00  0.00    -0.002 A 
ATOM     26  C   UNL     1      54.026  79.086  48.117  0.00  0.00    -0.002 A 
ATOM     27  C   UNL     1      53.171  79.505  47.119  0.00  0.00    +0.016 A 
BRANCH  24  28
ATOM     28  C   UNL     1      55.161  82.323  49.569  0.00  0.00    +0.418 C 
ATOM     29  F   UNL     1      54.708  82.210  50.865  0.00  0.00    -0.166 F 
ATOM     30  F   UNL     1      56.538  82.233  49.493  0.00  0.00    -0.166 F 
ATOM     31  F   UNL     1      54.822  83.597  49.138  0.00  0.00    -0.166 F 
ENDBRANCH  24  28
BRANCH  25  32
ATOM     32  C   UNL     1      55.599  79.460  49.993  0.00  0.00    +0.099 C 
BRANCH  32  33
ATOM     33  N   UNL     1      55.374  78.109  50.394  0.00  0.00    -0.267 NA
ATOM     34  C   UNL     1      56.228  77.276  49.551  0.00  0.00    +0.090 C 
ATOM     35  C   UNL     1      56.769  76.083  50.305  0.00  0.00    +0.090 C 
ATOM     36  N   UNL     1      57.668  76.586  51.319  0.00  0.00    -0.269 NA
ATOM     37  C   UNL     1      57.077  77.636  52.113  0.00  0.00    +0.090 C 
ATOM     38  C   UNL     1      55.618  77.862  51.798  0.00  0.00    +0.090 C 
ATOM     39  C   UNL     1      58.891  77.061  50.712  0.00  0.00    +0.090 C 
ENDBRANCH  32  33
ENDBRANCH  25  32
ENDBRANCH   3  22
TORSDOF 7
