REMARK  Name = Ponesimod
REMARK  8 active torsions:
REMARK  status: ('A' for Active; 'I' for Inactive)
REMARK    1  A    between atoms: C_2  and  C_3
REMARK    2  A    between atoms: C_3  and  N_4
REMARK    3  A    between atoms: N_6  and  C_25
REMARK    4  A    between atoms: C_10  and  C_11
REMARK    5  A    between atoms: C_14  and  O_17
REMARK    6  A    between atoms: O_17  and  C_18
REMARK    7  A    between atoms: C_18  and  C_19
REMARK    8  A    between atoms: C_19  and  C_20
REMARK                            x       y       z     vdW  Elec       q    Type
REMARK                         _______ _______ _______ _____ _____    ______ ____
ROOT
ATOM      1  N   UNL     1      44.627  77.522  40.640  0.00  0.00    -0.250 NA
ATOM      2  C   UNL     1      44.697  78.748  40.257  0.00  0.00    +0.169 C 
ATOM      3  N   UNL     1      43.992  79.426  39.239  0.00  0.00    -0.214 N 
ATOM      4  C   UNL     1      44.493  80.678  38.874  0.00  0.00    +0.264 C 
ATOM      5  O   UNL     1      43.943  81.402  37.953  0.00  0.00    -0.269 OA
ATOM      6  C   UNL     1      45.673  81.135  39.580  0.00  0.00    +0.086 C 
ATOM      7  C   UNL     1      46.514  82.123  39.383  0.00  0.00    +0.011 C 
ATOM      8  S   UNL     1      45.784  79.959  40.980  0.00  0.00    -0.048 S 
ENDROOT
BRANCH   7   9
ATOM      9  C   UNL     1      47.468  82.619  40.342  0.00  0.00    +0.002 A 
ATOM     10  C   UNL     1      47.182  83.444  41.409  0.00  0.00    +0.014 A 
ATOM     11  C   UNL     1      48.137  83.920  42.271  0.00  0.00    +0.092 A 
ATOM     12  C   UNL     1      49.486  83.574  42.095  0.00  0.00    +0.149 A 
ATOM     13  C   UNL     1      49.778  82.751  41.032  0.00  0.00    +0.038 A 
ATOM     14  C   UNL     1      48.807  82.285  40.181  0.00  0.00    +0.003 A 
ATOM     15 CL   UNL     1      47.676  84.974  43.613  0.00  0.00    -0.079 Cl
BRANCH  12  16
ATOM     16  O   UNL     1      50.368  84.086  42.988  0.00  0.00    -0.472 OA
BRANCH  16  17
ATOM     17  C   UNL     1      50.772  83.706  44.243  0.00  0.00    +0.241 C 
BRANCH  17  18
ATOM     18  C   UNL     1      52.067  82.966  44.355  0.00  0.00    +0.228 C 
ATOM     19  O   UNL     1      52.910  83.341  43.295  0.00  0.00    -0.216 OA
BRANCH  18  20
ATOM     20  C   UNL     1      51.756  81.476  44.156  0.00  0.00    +0.219 C 
ATOM     21  O   UNL     1      52.635  80.993  43.200  0.00  0.00    -0.217 OA
ENDBRANCH  18  20
ENDBRANCH  17  18
ENDBRANCH  16  17
ENDBRANCH  12  16
ENDBRANCH   7   9
BRANCH   3  22
ATOM     22  C   UNL     1      42.809  78.843  38.610  0.00  0.00    +0.056 A 
ATOM     23  C   UNL     1      42.780  78.546  37.264  0.00  0.00    +0.015 A 
ATOM     24  C   UNL     1      41.668  77.993  36.654  0.00  0.00    +0.001 A 
ATOM     25  C   UNL     1      40.550  77.728  37.410  0.00  0.00    -0.000 A 
ATOM     26  C   UNL     1      40.549  78.016  38.765  0.00  0.00    -0.003 A 
ATOM     27  C   UNL     1      41.671  78.563  39.329  0.00  0.00    -0.008 A 
ATOM     28  C   UNL     1      41.666  78.868  40.778  0.00  0.00    +0.032 C 
ENDBRANCH   3  22
BRANCH   1  29
ATOM     29  C   UNL     1      45.426  76.997  41.725  0.00  0.00    +0.127 C 
BRANCH  29  31
ATOM     30  C   UNL     1      44.550  76.046  43.858  0.00  0.00    +0.002 C 
ATOM     31  C   UNL     1      44.731  75.817  42.372  0.00  0.00    +0.026 C 
ENDBRANCH  29  31
ENDBRANCH   1  29
TORSDOF 8
