REMARK  Name = Posaconazole
REMARK  12 active torsions:
REMARK  status: ('A' for Active; 'I' for Inactive)
REMARK    1  A    between atoms: C_2  and  C_3
REMARK    2  A    between atoms: C_3  and  C_4
REMARK    3  A    between atoms: C_3  and  N_7
REMARK    4  A    between atoms: N_10  and  C_13
REMARK    5  A    between atoms: C_16  and  N_19
REMARK    6  A    between atoms: N_22  and  C_25
REMARK    7  A    between atoms: C_28  and  O_31
REMARK    8  A    between atoms: O_31  and  C_32
REMARK    9  A    between atoms: C_32  and  C_33
REMARK   10  A    between atoms: C_35  and  C_38
REMARK   11  A    between atoms: C_35  and  C_44
REMARK   12  A    between atoms: C_38  and  N_39
REMARK                            x       y       z     vdW  Elec       q    Type
REMARK                         _______ _______ _______ _____ _____    ______ ____
ROOT
ATOM      1  C   UNL     1      43.130  77.593  38.733  0.00  0.00    +0.048 A 
ATOM      2  C   UNL     1      43.418  78.676  37.892  0.00  0.00    +0.018 A 
ATOM      3  C   UNL     1      44.113  79.767  38.323  0.00  0.00    +0.038 A 
ATOM      4  C   UNL     1      44.581  79.863  39.647  0.00  0.00    +0.139 A 
ATOM      5  C   UNL     1      44.300  78.804  40.471  0.00  0.00    +0.038 A 
ATOM      6  C   UNL     1      43.588  77.693  40.015  0.00  0.00    +0.018 A 
ENDROOT
BRANCH   1  10
ATOM      7  N   UNL     1      40.636  74.563  37.299  0.00  0.00    -0.304 N 
ATOM      8  C   UNL     1      40.746  74.855  38.715  0.00  0.00    +0.112 C 
ATOM      9  C   UNL     1      42.156  75.340  39.034  0.00  0.00    +0.112 C 
ATOM     10  N   UNL     1      42.414  76.493  38.217  0.00  0.00    -0.304 N 
ATOM     11  C   UNL     1      41.932  76.499  36.852  0.00  0.00    +0.112 C 
ATOM     12  C   UNL     1      41.643  75.062  36.386  0.00  0.00    +0.112 C 
BRANCH   7  16
ATOM     13  C   UNL     1      37.262  72.268  36.058  0.00  0.00    +0.070 A 
ATOM     14  C   UNL     1      38.095  72.869  35.144  0.00  0.00    +0.019 A 
ATOM     15  C   UNL     1      39.213  73.625  35.518  0.00  0.00    +0.016 A 
ATOM     16  C   UNL     1      39.519  73.793  36.845  0.00  0.00    +0.048 A 
ATOM     17  C   UNL     1      38.673  73.181  37.771  0.00  0.00    +0.016 A 
ATOM     18  C   UNL     1      37.574  72.438  37.391  0.00  0.00    +0.019 A 
BRANCH  13  22
ATOM     19  N   UNL     1      34.644  70.481  34.369  0.00  0.00    -0.200 N 
ATOM     20  C   UNL     1      35.749  71.198  34.395  0.00  0.00    +0.352 A 
ATOM     21  O   UNL     1      36.433  71.589  33.417  0.00  0.00    -0.244 OA
ATOM     22  N   UNL     1      36.124  71.507  35.675  0.00  0.00    -0.240 N 
ATOM     23  C   UNL     1      35.185  70.940  36.448  0.00  0.00    +0.207 A 
ATOM     24  N   UNL     1      34.289  70.319  35.667  0.00  0.00    -0.144 NA
BRANCH  19  25
ATOM     25  C   UNL     1      33.875  69.927  33.267  0.00  0.00    +0.140 C 
BRANCH  25  26
ATOM     26  C   UNL     1      32.835  70.902  32.819  0.00  0.00    +0.174 C 
ATOM     27  C   UNL     1      31.723  71.179  33.757  0.00  0.00    +0.038 C 
ATOM     28  O   UNL     1      33.465  72.087  32.400  0.00  0.00    -0.221 OA
ENDBRANCH  25  26
BRANCH  25  30
ATOM     29  C   UNL     1      35.464  68.079  32.584  0.00  0.00    +0.002 C 
ATOM     30  C   UNL     1      34.764  69.367  32.230  0.00  0.00    +0.027 C 
ENDBRANCH  25  30
ENDBRANCH  19  25
ENDBRANCH  13  22
ENDBRANCH   7  16
ENDBRANCH   1  10
BRANCH   4  31
ATOM     31  O   UNL     1      45.265  80.961  40.042  0.00  0.00    -0.475 OA
BRANCH  31  32
ATOM     32  C   UNL     1      46.605  81.254  40.163  0.00  0.00    +0.208 C 
BRANCH  32  33
ATOM     33  C   UNL     1      46.961  82.526  40.864  0.00  0.00    +0.076 C 
ATOM     34  C   UNL     1      47.114  82.226  42.362  0.00  0.00    +0.040 C 
ATOM     35  C   UNL     1      48.603  82.277  42.614  0.00  0.00    +0.136 C 
ATOM     36  O   UNL     1      49.145  82.081  41.312  0.00  0.00    -0.352 OA
ATOM     37  C   UNL     1      48.393  82.954  40.520  0.00  0.00    +0.146 C 
BRANCH  35  38
ATOM     38  C   UNL     1      49.109  83.568  43.077  0.00  0.00    +0.032 A 
ATOM     39  C   UNL     1      50.481  83.759  43.096  0.00  0.00    +0.141 A 
ATOM     40  C   UNL     1      51.054  84.960  43.537  0.00  0.00    +0.059 A 
ATOM     41  C   UNL     1      50.259  85.998  43.968  0.00  0.00    +0.142 A 
ATOM     42  C   UNL     1      48.895  85.832  43.956  0.00  0.00    +0.030 A 
ATOM     43  C   UNL     1      48.355  84.633  43.516  0.00  0.00    +0.003 A 
ATOM     44  F   UNL     1      50.769  87.176  44.401  0.00  0.00    -0.204 F 
ATOM     45  F   UNL     1      51.380  82.829  42.686  0.00  0.00    -0.204 F 
ENDBRANCH  35  38
BRANCH  35  46
ATOM     46  C   UNL     1      49.057  81.110  43.451  0.00  0.00    +0.160 C 
BRANCH  46  47
ATOM     47  N   UNL     1      50.182  80.454  42.827  0.00  0.00    -0.227 N 
ATOM     48  C   UNL     1      51.302  80.098  43.461  0.00  0.00    +0.197 A 
ATOM     49  N   UNL     1      52.094  79.525  42.555  0.00  0.00    -0.201 NA
ATOM     50  C   UNL     1      51.458  79.532  41.375  0.00  0.00    +0.221 A 
ATOM     51  N   UNL     1      50.275  80.114  41.571  0.00  0.00    -0.145 NA
ENDBRANCH  46  47
ENDBRANCH  35  46
ENDBRANCH  32  33
ENDBRANCH  31  32
ENDBRANCH   4  31
TORSDOF 12
