REMARK  Name = Practolol
REMARK  7 active torsions:
REMARK  status: ('A' for Active; 'I' for Inactive)
REMARK    1  A    between atoms: C_2  and  N_4
REMARK    2  A    between atoms: N_4  and  C_5
REMARK    3  A    between atoms: C_5  and  C_6
REMARK    4  A    between atoms: C_6  and  C_7
REMARK    5  A    between atoms: C_7  and  O_8
REMARK    6  A    between atoms: O_8  and  C_9
REMARK    7  A    between atoms: C_12  and  N_15
REMARK                            x       y       z     vdW  Elec       q    Type
REMARK                         _______ _______ _______ _____ _____    ______ ____
ROOT
ATOM      1  C   UNL     1      43.482  79.115  39.216  0.00  0.00    +0.139 A 
ATOM      2  C   UNL     1      42.761  79.350  38.056  0.00  0.00    +0.038 A 
ATOM      3  C   UNL     1      41.864  78.429  37.584  0.00  0.00    +0.020 A 
ATOM      4  C   UNL     1      41.640  77.237  38.237  0.00  0.00    +0.074 A 
ATOM      5  C   UNL     1      42.357  76.999  39.394  0.00  0.00    +0.020 A 
ATOM      6  C   UNL     1      43.258  77.927  39.865  0.00  0.00    +0.038 A 
ENDROOT
BRANCH   4   7
ATOM      7  N   UNL     1      40.702  76.265  37.751  0.00  0.00    -0.179 NA
ATOM      8  C   UNL     1      40.519  75.052  38.438  0.00  0.00    +0.246 C 
ATOM      9  O   UNL     1      41.247  74.779  39.414  0.00  0.00    -0.273 OA
ATOM     10  C   UNL     1      39.453  74.106  37.989  0.00  0.00    +0.097 C 
ENDBRANCH   4   7
BRANCH   1  11
ATOM     11  O   UNL     1      44.384  80.068  39.669  0.00  0.00    -0.473 OA
BRANCH  11  12
ATOM     12  C   UNL     1      45.714  79.986  39.188  0.00  0.00    +0.240 C 
BRANCH  12  13
ATOM     13  C   UNL     1      46.347  81.357  39.123  0.00  0.00    +0.213 C 
ATOM     14  O   UNL     1      45.493  82.225  38.469  0.00  0.00    -0.218 OA
BRANCH  13  15
ATOM     15  C   UNL     1      46.790  81.854  40.462  0.00  0.00    +0.125 C 
BRANCH  15  16
ATOM     16  N   UNL     1      48.186  82.141  40.417  0.00  0.00    -0.217 NA
BRANCH  16  18
ATOM     17  C   UNL     1      49.000  81.440  42.543  0.00  0.00    +0.019 C 
ATOM     18  C   UNL     1      48.731  82.638  41.656  0.00  0.00    +0.073 C 
ATOM     19  C   UNL     1      49.955  83.469  41.493  0.00  0.00    +0.019 C 
ENDBRANCH  16  18
ENDBRANCH  15  16
ENDBRANCH  13  15
ENDBRANCH  12  13
ENDBRANCH  11  12
ENDBRANCH   1  11
TORSDOF 7
