REMARK  Name = Pralidoxime_Chloride
REMARK  1 active torsions:
REMARK  status: ('A' for Active; 'I' for Inactive)
REMARK    1  A    between atoms: C_7  and  C_8
REMARK                            x       y       z     vdW  Elec       q    Type
REMARK                         _______ _______ _______ _____ _____    ______ ____
ROOT
ATOM      1  C   UNL     1      43.367  79.323  38.021  0.00  0.00    +0.131 C 
ATOM      2  N   UNL     1      44.021  78.938  39.256  0.00  0.00    -0.323 N 
ATOM      3  C   UNL     1      43.434  77.960  39.973  0.00  0.00    +0.076 A 
ATOM      4  C   UNL     1      43.996  77.536  41.161  0.00  0.00    +0.019 A 
ATOM      5  C   UNL     1      45.155  78.134  41.581  0.00  0.00    +0.003 A 
ATOM      6  C   UNL     1      45.726  79.130  40.822  0.00  0.00    +0.019 A 
ATOM      7  C   UNL     1      45.155  79.554  39.624  0.00  0.00    +0.083 A 
ENDROOT
BRANCH   7   8
ATOM      8  C   UNL     1      45.764  80.608  38.826  0.00  0.00    +0.162 C 
ATOM      9  N   UNL     1      45.405  81.843  38.905  0.00  0.00    -0.026 NA
ATOM     10  O   UNL     1      45.983  82.825  38.151  0.00  0.00    -0.143 OA
ENDBRANCH   7   8
TORSDOF 1
REMARK  Name = Pralidoxime_Chloride
REMARK  1 active torsions:
REMARK  status: ('A' for Active; 'I' for Inactive)
REMARK    1  A    between atoms: C_7  and  C_8
REMARK                            x       y       z     vdW  Elec       q    Type
REMARK                         _______ _______ _______ _____ _____    ______ ____
ROOT
ATOM      1 CL   UNL     1      44.689  79.436  39.529  0.00  0.00    +0.000 Cl
ENDROOT
TORSDOF 0
