REMARK  Name = Pralsetinib
REMARK  5 active torsions:
REMARK  status: ('A' for Active; 'I' for Inactive)
REMARK    1  A    between atoms: C_10  and  C_15
REMARK    2  A    between atoms: C_18  and  C_21
REMARK    3  A    between atoms: C_18  and  O_38
REMARK    4  A    between atoms: N_23  and  C_24
REMARK    5  A    between atoms: C_24  and  C_26
REMARK                            x       y       z     vdW  Elec       q    Type
REMARK                         _______ _______ _______ _____ _____    ______ ____
ROOT
ATOM      1  C   UNL     1      44.134  76.675  40.532  0.00  0.00    +0.059 C 
ATOM      2  C   UNL     1      45.238  77.343  41.289  0.00  0.00    +0.010 C 
ATOM      3  C   UNL     1      46.034  76.312  42.024  0.00  0.00    +0.037 C 
ATOM      4  C   UNL     1      45.153  75.446  42.927  0.00  0.00    +0.162 C 
ATOM      5  C   UNL     1      43.900  75.025  42.281  0.00  0.00    +0.037 C 
ATOM      6  C   UNL     1      43.153  76.133  41.583  0.00  0.00    +0.010 C 
ENDROOT
BRANCH   1  16
ATOM      7  C   UNL     1      47.710  81.168  41.319  0.00  0.00    +0.054 C 
ATOM      8  C   UNL     1      46.811  81.398  40.162  0.00  0.00    +0.084 A 
ATOM      9  C   UNL     1      45.766  80.610  39.726  0.00  0.00    +0.054 A 
ATOM     10  C   UNL     1      45.179  81.176  38.614  0.00  0.00    +0.176 A 
ATOM     11  N   UNL     1      45.880  82.302  38.393  0.00  0.00    -0.131 NA
ATOM     12  N   UNL     1      46.846  82.435  39.309  0.00  0.00    -0.151 NA
ATOM     13  N   UNL     1      44.070  80.684  37.855  0.00  0.00    -0.174 NA
ATOM     14  C   UNL     1      43.437  79.495  38.258  0.00  0.00    +0.156 A 
ATOM     15  N   UNL     1      44.031  78.684  39.147  0.00  0.00    -0.214 NA
ATOM     16  C   UNL     1      43.468  77.537  39.566  0.00  0.00    +0.140 A 
ATOM     17  N   UNL     1      42.257  77.176  39.079  0.00  0.00    -0.235 NA
ATOM     18  C   UNL     1      41.603  77.937  38.187  0.00  0.00    +0.064 A 
ATOM     19  C   UNL     1      42.208  79.106  37.779  0.00  0.00    +0.051 A 
ATOM     20  C   UNL     1      40.290  77.503  37.688  0.00  0.00    +0.052 C 
ENDBRANCH   1  16
BRANCH   4  21
ATOM     21  C   UNL     1      46.005  74.248  43.192  0.00  0.00    +0.266 C 
ATOM     22  O   UNL     1      47.091  74.355  43.854  0.00  0.00    -0.271 OA
ATOM     23  N   UNL     1      45.663  72.962  42.741  0.00  0.00    -0.201 NA
BRANCH  23  24
ATOM     24  C   UNL     1      46.515  71.794  42.924  0.00  0.00    +0.119 C 
ATOM     25  C   UNL     1      47.789  71.928  42.131  0.00  0.00    +0.028 C 
BRANCH  24  26
ATOM     26  C   UNL     1      45.732  70.596  42.507  0.00  0.00    +0.017 A 
ATOM     27  C   UNL     1      44.448  70.733  42.024  0.00  0.00    +0.098 A 
ATOM     28  N   UNL     1      43.717  69.659  41.638  0.00  0.00    -0.225 NA
ATOM     29  C   UNL     1      44.184  68.399  41.698  0.00  0.00    +0.164 A 
ATOM     30  C   UNL     1      45.466  68.231  42.179  0.00  0.00    +0.039 A 
ATOM     31  C   UNL     1      46.234  69.313  42.579  0.00  0.00    +0.002 A 
ATOM     32  N   UNL     1      43.397  67.271  41.286  0.00  0.00    -0.208 N 
ATOM     33  C   UNL     1      43.742  65.975  41.285  0.00  0.00    +0.133 A 
ATOM     34  C   UNL     1      42.691  65.220  40.810  0.00  0.00    +0.180 A 
ATOM     35  C   UNL     1      41.692  66.123  40.524  0.00  0.00    +0.152 A 
ATOM     36  N   UNL     1      42.173  67.340  40.830  0.00  0.00    -0.160 NA
ATOM     37  F   UNL     1      42.651  63.865  40.657  0.00  0.00    -0.201 F 
ENDBRANCH  24  26
ENDBRANCH  23  24
ENDBRANCH   4  21
BRANCH   4  38
ATOM     38  O   UNL     1      44.984  76.139  44.107  0.00  0.00    -0.347 OA
ATOM     39  C   UNL     1      45.465  75.545  45.239  0.00  0.00    +0.175 C 
ENDBRANCH   4  38
TORSDOF 5
