REMARK  Name = Pralatrexate
REMARK  11 active torsions:
REMARK  status: ('A' for Active; 'I' for Inactive)
REMARK    1  A    between atoms: C_2  and  C_3
REMARK    2  A    between atoms: C_3  and  C_4
REMARK    3  A    between atoms: C_4  and  C_5
REMARK    4  A    between atoms: C_4  and  C_18
REMARK    5  A    between atoms: C_5  and  C_6
REMARK    6  A    between atoms: C_21  and  C_24
REMARK    7  A    between atoms: N_26  and  CA_27
REMARK    8  A    between atoms: CA_27  and  CB_28
REMARK    9  A    between atoms: CA_27  and  C_33
REMARK   10  A    between atoms: CB_28  and  CG_29
REMARK   11  A    between atoms: CG_29  and  CD_30
REMARK                            x       y       z     vdW  Elec       q    Type
REMARK                         _______ _______ _______ _____ _____    ______ ____
ROOT
ATOM      1  C   UNK A   0      49.674  82.175  43.674  0.00  0.00    -0.021 A 
ATOM      2  C   UNK A   0      51.045  82.106  43.653  0.00  0.00    -0.004 A 
ATOM      3  C   UNK A   0      51.765  81.619  44.749  0.00  0.00    +0.004 A 
ATOM      4  C   UNK A   0      51.084  81.203  45.864  0.00  0.00    +0.055 A 
ATOM      5  C   UNK A   0      49.697  81.267  45.897  0.00  0.00    +0.004 A 
ATOM      6  C   UNK A   0      49.013  81.750  44.806  0.00  0.00    -0.004 A 
ENDROOT
BRANCH   4   7
ATOM      7  C   UNK A   0      51.782  80.672  47.050  0.00  0.00    +0.265 C 
ATOM      8  O   UNK A   0      51.076  79.991  47.841  0.00  0.00    -0.268 OA
ATOM      9  N   GLU A   1      53.133  80.882  47.323  0.00  0.00    -0.192 NA
BRANCH   9  10
ATOM     10  CA  GLU A   1      53.878  80.514  48.478  0.00  0.00    +0.199 C 
BRANCH  10  11
ATOM     11  C   GLU A   1      55.153  81.250  48.559  0.00  0.00    +0.384 C 
ATOM     12  O   GLU A   1      55.955  80.969  49.483  0.00  0.00    -0.244 OA
ATOM     13  OXT GLU A   1      55.514  82.243  47.660  0.00  0.00    -0.244 OA
ENDBRANCH  10  11
BRANCH  10  14
ATOM     14  CB  GLU A   1      54.060  79.033  48.596  0.00  0.00    +0.045 C 
BRANCH  14  15
ATOM     15  CG  GLU A   1      53.117  78.404  49.562  0.00  0.00    +0.116 C 
BRANCH  15  16
ATOM     16  CD  GLU A   1      53.239  76.930  49.601  0.00  0.00    +0.365 C 
ATOM     17  OE1 GLU A   1      52.459  76.243  50.280  0.00  0.00    -0.246 OA
ATOM     18  OE2 GLU A   1      54.259  76.312  48.853  0.00  0.00    -0.246 OA
ENDBRANCH  15  16
ENDBRANCH  14  15
ENDBRANCH  10  14
ENDBRANCH   9  10
ENDBRANCH   4   7
BRANCH   1  19
ATOM     19  C   UNK A   0      48.889  82.677  42.505  0.00  0.00    +0.041 C 
BRANCH  19  20
ATOM     20  C   UNK A   0      49.201  84.095  42.184  0.00  0.00    +0.082 C 
BRANCH  20  22
ATOM     21  C   UNK A   0      47.742  85.608  43.868  0.00  0.00    -0.014 C 
ATOM     22  C   UNK A   0      48.403  84.928  43.120  0.00  0.00    -0.078 C 
ENDBRANCH  20  22
ENDBRANCH  19  20
BRANCH  19  23
ATOM     23  C   UNK A   0      49.035  81.728  41.372  0.00  0.00    +0.053 C 
BRANCH  23  24
ATOM     24  C   UNK A   0      47.832  81.539  40.532  0.00  0.00    +0.079 A 
ATOM     25  C   UNK A   0      47.580  82.298  39.410  0.00  0.00    +0.115 A 
ATOM     26  N   UNK A   0      46.476  82.057  38.694  0.00  0.00    -0.222 NA
ATOM     27  C   UNK A   0      45.569  81.115  38.981  0.00  0.00    +0.186 A 
ATOM     28  C   UNK A   0      45.831  80.358  40.110  0.00  0.00    +0.151 A 
ATOM     29  N   UNK A   0      46.932  80.587  40.838  0.00  0.00    -0.242 NA
ATOM     30  C   UNK A   0      44.907  79.378  40.426  0.00  0.00    +0.193 A 
ATOM     31  N   UNK A   0      43.809  79.177  39.668  0.00  0.00    -0.191 NA
ATOM     32  C   UNK A   0      43.566  79.920  38.573  0.00  0.00    +0.259 A 
ATOM     33  N   UNK A   0      44.460  80.875  38.259  0.00  0.00    -0.190 NA
ATOM     34  N   UNK A   0      42.397  79.699  37.772  0.00  0.00    -0.086 NA
ATOM     35  N   UNK A   0      45.165  78.586  41.592  0.00  0.00    -0.105 NA
ENDBRANCH  23  24
ENDBRANCH  19  23
ENDBRANCH   1  19
TORSDOF 11
