REMARK  Name = Pramiracetam
REMARK  7 active torsions:
REMARK  status: ('A' for Active; 'I' for Inactive)
REMARK    1  A    between atoms: C_2  and  N_4
REMARK    2  A    between atoms: N_4  and  C_5
REMARK    3  A    between atoms: N_4  and  C_17
REMARK    4  A    between atoms: C_5  and  C_6
REMARK    5  A    between atoms: C_6  and  N_7
REMARK    6  A    between atoms: C_8  and  C_10
REMARK    7  A    between atoms: C_10  and  N_11
REMARK                            x       y       z     vdW  Elec       q    Type
REMARK                         _______ _______ _______ _____ _____    ______ ____
ROOT
ATOM      1  N   UNL     1      46.921  81.929  39.419  0.00  0.00    -0.202 NA
ATOM      2  C   UNL     1      45.762  81.508  38.727  0.00  0.00    +0.262 C 
ATOM      3  O   UNL     1      44.775  82.245  38.489  0.00  0.00    -0.271 OA
ENDROOT
BRANCH   1   4
ATOM      4  C   UNL     1      46.839  82.411  40.796  0.00  0.00    +0.132 C 
BRANCH   4   5
ATOM      5  C   UNL     1      48.182  82.838  41.240  0.00  0.00    +0.096 C 
BRANCH   5   6
ATOM      6  N   UNL     1      48.513  82.808  42.619  0.00  0.00    -0.274 NA
BRANCH   6   8
ATOM      7  C   UNL     1      49.943  80.836  42.315  0.00  0.00    +0.017 C 
ATOM      8  C   UNL     1      48.887  81.584  43.135  0.00  0.00    +0.058 C 
ATOM      9  C   UNL     1      49.471  81.634  44.523  0.00  0.00    +0.017 C 
ENDBRANCH   6   8
BRANCH   6  10
ATOM     10  C   UNL     1      49.142  84.018  42.967  0.00  0.00    +0.058 C 
ATOM     11  C   UNL     1      50.164  84.589  42.055  0.00  0.00    +0.017 C 
ATOM     12  C   UNL     1      48.141  85.091  43.442  0.00  0.00    +0.017 C 
ENDBRANCH   6  10
ENDBRANCH   5   6
ENDBRANCH   4   5
ENDBRANCH   1   4
BRANCH   2  13
ATOM     13  C   UNL     1      45.654  80.085  38.217  0.00  0.00    +0.181 C 
BRANCH  13  14
ATOM     14  N   UNL     1      44.891  79.251  39.088  0.00  0.00    -0.271 N 
ATOM     15  C   UNL     1      45.426  78.683  40.311  0.00  0.00    +0.094 C 
ATOM     16  C   UNL     1      44.256  78.020  40.962  0.00  0.00    +0.031 C 
ATOM     17  C   UNL     1      43.360  77.645  39.804  0.00  0.00    +0.087 C 
ATOM     18  C   UNL     1      43.546  78.851  38.919  0.00  0.00    +0.226 C 
ATOM     19  O   UNL     1      42.670  79.374  38.191  0.00  0.00    -0.275 OA
ENDBRANCH  13  14
ENDBRANCH   2  13
TORSDOF 7
