REMARK  Name = Pramoxine
REMARK  9 active torsions:
REMARK  status: ('A' for Active; 'I' for Inactive)
REMARK    1  A    between atoms: C_2  and  C_3
REMARK    2  A    between atoms: C_3  and  C_4
REMARK    3  A    between atoms: C_4  and  O_5
REMARK    4  A    between atoms: O_5  and  C_6
REMARK    5  A    between atoms: C_9  and  O_12
REMARK    6  A    between atoms: O_12  and  C_13
REMARK    7  A    between atoms: C_13  and  C_14
REMARK    8  A    between atoms: C_14  and  C_15
REMARK    9  A    between atoms: C_15  and  N_16
REMARK                            x       y       z     vdW  Elec       q    Type
REMARK                         _______ _______ _______ _____ _____    ______ ____
ROOT
ATOM      1  C   UNL     1      47.535  81.760  40.669  0.00  0.00    +0.139 A 
ATOM      2  C   UNL     1      46.883  82.344  39.556  0.00  0.00    +0.040 A 
ATOM      3  C   UNL     1      45.747  81.786  39.044  0.00  0.00    +0.040 A 
ATOM      4  C   UNL     1      45.210  80.652  39.592  0.00  0.00    +0.139 A 
ATOM      5  C   UNL     1      45.843  80.092  40.665  0.00  0.00    +0.040 A 
ATOM      6  C   UNL     1      47.000  80.627  41.214  0.00  0.00    +0.040 A 
ENDROOT
BRANCH   1   7
ATOM      7  O   UNL     1      48.662  82.413  41.080  0.00  0.00    -0.475 OA
BRANCH   7   8
ATOM      8  C   UNL     1      49.159  82.427  42.364  0.00  0.00    +0.205 C 
BRANCH   8   9
ATOM      9  C   UNL     1      50.528  83.003  42.493  0.00  0.00    +0.047 C 
BRANCH   9  11
ATOM     10  C   UNL     1      49.533  84.998  43.485  0.00  0.00    +0.000 C 
ATOM     11  C   UNL     1      50.426  84.534  42.368  0.00  0.00    +0.004 C 
ENDBRANCH   9  11
ENDBRANCH   8   9
ENDBRANCH   7   8
ENDBRANCH   1   7
BRANCH   4  12
ATOM     12  O   UNL     1      44.052  80.076  39.078  0.00  0.00    -0.475 OA
BRANCH  12  13
ATOM     13  C   UNL     1      43.976  78.680  38.988  0.00  0.00    +0.207 C 
BRANCH  13  14
ATOM     14  C   UNL     1      42.536  78.201  39.244  0.00  0.00    +0.065 C 
BRANCH  14  15
ATOM     15  C   UNL     1      41.994  77.802  37.911  0.00  0.00    +0.076 C 
BRANCH  15  16
ATOM     16  N   UNL     1      40.804  77.029  37.919  0.00  0.00    -0.268 NA
ATOM     17  C   UNL     1      40.227  76.783  36.620  0.00  0.00    +0.105 C 
ATOM     18  C   UNL     1      38.845  76.171  36.893  0.00  0.00    +0.159 C 
ATOM     19  O   UNL     1      39.063  74.933  37.444  0.00  0.00    -0.351 OA
ATOM     20  C   UNL     1      39.735  74.952  38.661  0.00  0.00    +0.159 C 
ATOM     21  C   UNL     1      40.992  75.795  38.601  0.00  0.00    +0.105 C 
ENDBRANCH  15  16
ENDBRANCH  14  15
ENDBRANCH  13  14
ENDBRANCH  12  13
ENDBRANCH   4  12
TORSDOF 9
