REMARK  Name = Pramipexole
REMARK  3 active torsions:
REMARK  status: ('A' for Active; 'I' for Inactive)
REMARK    1  A    between atoms: C_2  and  C_3
REMARK    2  A    between atoms: C_3  and  N_4
REMARK    3  A    between atoms: N_4  and  C_5
REMARK                            x       y       z     vdW  Elec       q    Type
REMARK                         _______ _______ _______ _____ _____    ______ ____
ROOT
ATOM      1  C   UNL     1      43.577  78.171  40.322  0.00  0.00    +0.078 C 
ATOM      2  C   UNL     1      43.385  78.483  38.854  0.00  0.00    +0.024 C 
ATOM      3  C   UNL     1      43.115  79.950  38.628  0.00  0.00    +0.048 C 
ATOM      4  C   UNL     1      44.357  80.677  39.157  0.00  0.00    +0.063 A 
ATOM      5  C   UNL     1      45.022  80.159  40.235  0.00  0.00    +0.025 A 
ATOM      6  C   UNL     1      44.660  78.924  40.982  0.00  0.00    +0.052 C 
ATOM      7  S   UNL     1      46.296  81.301  40.425  0.00  0.00    -0.053 S 
ATOM      8  C   UNL     1      45.906  82.353  39.136  0.00  0.00    +0.200 A 
ATOM      9  N   UNL     1      44.831  81.781  38.630  0.00  0.00    -0.226 NA
ATOM     10  N   UNL     1      46.577  83.551  38.711  0.00  0.00    -0.100 NA
ENDROOT
BRANCH   1  11
ATOM     11  N   UNL     1      43.876  76.747  40.404  0.00  0.00    -0.219 NA
BRANCH  11  12
ATOM     12  C   UNL     1      43.452  76.150  41.632  0.00  0.00    +0.089 C 
BRANCH  12  14
ATOM     13  C   UNL     1      44.214  75.611  43.898  0.00  0.00    +0.002 C 
ATOM     14  C   UNL     1      44.656  76.131  42.562  0.00  0.00    +0.019 C 
ENDBRANCH  12  14
ENDBRANCH  11  12
ENDBRANCH   1  11
TORSDOF 3
