REMARK  Name = Pranlukast
REMARK  9 active torsions:
REMARK  status: ('A' for Active; 'I' for Inactive)
REMARK    1  A    between atoms: C_4  and  C_7
REMARK    2  A    between atoms: C_7  and  C_8
REMARK    3  A    between atoms: C_8  and  C_9
REMARK    4  A    between atoms: C_9  and  C_10
REMARK    5  A    between atoms: C_10  and  O_11
REMARK    6  A    between atoms: O_11  and  C_12
REMARK    7  A    between atoms: C_15  and  C_18
REMARK    8  A    between atoms: N_20  and  C_21
REMARK    9  A    between atoms: C_28  and  C_32
REMARK                            x       y       z     vdW  Elec       q    Type
REMARK                         _______ _______ _______ _____ _____    ______ ____
ROOT
ATOM      1  C   UNL     1      45.063  80.680  39.622  0.00  0.00    +0.269 C 
ATOM      2  O   UNL     1      44.770  81.300  38.581  0.00  0.00    -0.268 OA
ATOM      3  N   UNL     1      44.285  79.584  40.051  0.00  0.00    -0.172 NA
ENDROOT
BRANCH   3   4
ATOM      4  C   UNL     1      43.334  78.879  39.264  0.00  0.00    +0.108 A 
ATOM      5  C   UNL     1      42.813  79.312  38.072  0.00  0.00    +0.020 A 
ATOM      6  C   UNL     1      41.875  78.562  37.349  0.00  0.00    +0.002 A 
ATOM      7  C   UNL     1      41.487  77.358  37.884  0.00  0.00    +0.006 A 
ATOM      8  C   UNL     1      42.009  76.916  39.086  0.00  0.00    +0.075 A 
ATOM      9  C   UNL     1      42.927  77.644  39.799  0.00  0.00    +0.164 A 
ATOM     10  O   UNL     1      43.414  77.216  40.936  0.00  0.00    -0.449 OA
ATOM     11  C   UNL     1      43.079  76.077  41.490  0.00  0.00    +0.188 A 
ATOM     12  C   UNL     1      42.159  75.292  40.828  0.00  0.00    +0.083 A 
ATOM     13  C   UNL     1      41.613  75.691  39.629  0.00  0.00    +0.202 A 
ATOM     14  O   UNL     1      40.775  75.014  38.988  0.00  0.00    -0.286 OA
BRANCH  11  15
ATOM     15  C   UNL     1      43.672  75.671  42.767  0.00  0.00    +0.242 A 
ATOM     16  N   UNL     1      44.563  76.324  43.534  0.00  0.00    -0.103 NA
ATOM     17  N   UNL     1      44.841  75.609  44.611  0.00  0.00    -0.021 NA
ATOM     18  N   UNL     1      44.117  74.507  44.509  0.00  0.00    -0.021 NA
ATOM     19  N   UNL     1      43.401  74.528  43.396  0.00  0.00    -0.103 NA
ENDBRANCH  11  15
ENDBRANCH   3   4
BRANCH   1  23
ATOM     20  C   UNL     1      48.510  82.032  41.797  0.00  0.00    +0.139 A 
ATOM     21  C   UNL     1      47.800  80.888  42.213  0.00  0.00    +0.037 A 
ATOM     22  C   UNL     1      46.712  80.510  41.477  0.00  0.00    +0.008 A 
ATOM     23  C   UNL     1      46.253  81.166  40.354  0.00  0.00    +0.056 A 
ATOM     24  C   UNL     1      46.959  82.272  39.974  0.00  0.00    +0.008 A 
ATOM     25  C   UNL     1      48.085  82.715  40.684  0.00  0.00    +0.037 A 
BRANCH  20  26
ATOM     26  O   UNL     1      49.587  82.352  42.586  0.00  0.00    -0.475 OA
BRANCH  26  27
ATOM     27  C   UNL     1      49.567  83.280  43.613  0.00  0.00    +0.205 C 
BRANCH  27  28
ATOM     28  C   UNL     1      50.433  82.932  44.801  0.00  0.00    +0.048 C 
BRANCH  28  29
ATOM     29  C   UNL     1      51.898  83.192  44.581  0.00  0.00    +0.009 C 
BRANCH  29  30
ATOM     30  C   UNL     1      52.259  84.566  45.040  0.00  0.00    +0.026 C 
BRANCH  30  34
ATOM     31  C   UNL     1      54.812  84.441  48.470  0.00  0.00    -0.000 A 
ATOM     32  C   UNL     1      53.968  85.522  48.286  0.00  0.00    -0.000 A 
ATOM     33  C   UNL     1      53.140  85.550  47.162  0.00  0.00    -0.004 A 
ATOM     34  C   UNL     1      53.151  84.529  46.244  0.00  0.00    -0.022 A 
ATOM     35  C   UNL     1      54.005  83.476  46.469  0.00  0.00    -0.004 A 
ATOM     36  C   UNL     1      54.839  83.403  47.559  0.00  0.00    -0.000 A 
ENDBRANCH  30  34
ENDBRANCH  29  30
ENDBRANCH  28  29
ENDBRANCH  27  28
ENDBRANCH  26  27
ENDBRANCH  20  26
ENDBRANCH   1  23
TORSDOF 9
