REMARK  Name = Prasugrel
REMARK  6 active torsions:
REMARK  status: ('A' for Active; 'I' for Inactive)
REMARK    1  A    between atoms: C_2  and  O_4
REMARK    2  A    between atoms: O_4  and  C_5
REMARK    3  A    between atoms: N_12  and  C_14
REMARK    4  A    between atoms: C_14  and  C_15
REMARK    5  A    between atoms: C_14  and  C_22
REMARK    6  A    between atoms: C_22  and  C_24
REMARK                            x       y       z     vdW  Elec       q    Type
REMARK                         _______ _______ _______ _____ _____    ______ ____
ROOT
ATOM      1  C   UNL     1      48.054  82.916  41.849  0.00  0.00    +0.178 A 
ATOM      2  C   UNL     1      47.863  81.574  41.709  0.00  0.00    +0.042 A 
ATOM      3  C   UNL     1      47.135  81.153  40.669  0.00  0.00    -0.000 A 
ATOM      4  C   UNL     1      46.635  82.109  39.821  0.00  0.00    +0.009 A 
ATOM      5  S   UNL     1      47.210  83.564  40.521  0.00  0.00    -0.055 S 
ATOM      6  C   UNL     1      45.809  81.717  38.629  0.00  0.00    +0.050 C 
ATOM      7  C   UNL     1      44.959  80.519  38.850  0.00  0.00    +0.078 C 
ATOM      8  N   UNL     1      45.292  79.831  40.092  0.00  0.00    -0.260 NA
ATOM      9  C   UNL     1      46.739  79.752  40.235  0.00  0.00    +0.100 C 
ENDROOT
BRANCH   1  10
ATOM     10  O   UNL     1      48.736  83.678  42.785  0.00  0.00    -0.417 OA
BRANCH  10  12
ATOM     11  C   UNL     1      50.730  85.096  43.423  0.00  0.00    +0.122 C 
ATOM     12  C   UNL     1      50.068  84.036  42.611  0.00  0.00    +0.323 C 
ATOM     13  O   UNL     1      50.702  83.412  41.720  0.00  0.00    -0.250 OA
ENDBRANCH  10  12
ENDBRANCH   1  10
BRANCH   8  14
ATOM     14  C   UNL     1      44.680  78.519  40.140  0.00  0.00    +0.141 C 
BRANCH  14  15
ATOM     15  C   UNL     1      43.443  78.448  39.349  0.00  0.00    +0.027 A 
ATOM     16  C   UNL     1      42.166  78.565  39.911  0.00  0.00    -0.000 A 
ATOM     17  C   UNL     1      41.053  78.480  39.086  0.00  0.00    -0.000 A 
ATOM     18  C   UNL     1      41.211  78.284  37.735  0.00  0.00    +0.002 A 
ATOM     19  C   UNL     1      42.457  78.165  37.157  0.00  0.00    +0.029 A 
ATOM     20  C   UNL     1      43.545  78.251  37.988  0.00  0.00    +0.138 A 
ATOM     21  F   UNL     1      44.784  78.135  37.427  0.00  0.00    -0.204 F 
ENDBRANCH  14  15
BRANCH  14  22
ATOM     22  C   UNL     1      44.540  78.052  41.541  0.00  0.00    +0.169 C 
ATOM     23  O   UNL     1      44.237  78.893  42.393  0.00  0.00    -0.294 OA
BRANCH  22  24
ATOM     24  C   UNL     1      44.733  76.671  41.989  0.00  0.00    +0.059 C 
ATOM     25  C   UNL     1      43.981  76.256  43.252  0.00  0.00    +0.008 C 
ATOM     26  C   UNL     1      45.507  76.283  43.177  0.00  0.00    +0.008 C 
ENDBRANCH  22  24
ENDBRANCH  14  22
ENDBRANCH   8  14
TORSDOF 6
