REMARK  Name = Prasterone
REMARK  0 active torsions:
REMARK  status: ('A' for Active; 'I' for Inactive)
REMARK                            x       y       z     vdW  Elec       q    Type
REMARK                         _______ _______ _______ _____ _____    ______ ____
ROOT
ATOM      1  C   UNL     1      48.900  81.853  43.993  0.00  0.00    +0.007 C 
ATOM      2  C   UNL     1      49.722  81.821  42.730  0.00  0.00    +0.052 C 
ATOM      3  C   UNL     1      49.780  80.443  42.190  0.00  0.00    +0.007 C 
ATOM      4  C   UNL     1      48.352  79.982  41.970  0.00  0.00    +0.001 C 
ATOM      5  C   UNL     1      47.733  80.870  40.938  0.00  0.00    +0.004 C 
ATOM      6  C   UNL     1      47.715  82.329  41.294  0.00  0.00    +0.005 C 
ATOM      7  C   UNL     1      49.123  82.720  41.640  0.00  0.00    +0.007 C 
ATOM      8  C   UNL     1      49.304  84.055  42.258  0.00  0.00    +0.008 C 
ATOM      9  C   UNL     1      50.729  83.955  42.822  0.00  0.00    +0.064 C 
ATOM     10  C   UNL     1      51.007  82.499  42.926  0.00  0.00    +0.150 C 
ATOM     11  O   UNL     1      52.071  81.960  43.131  0.00  0.00    -0.296 OA
ATOM     12  C   UNL     1      47.285  83.126  40.099  0.00  0.00    +0.025 C 
ATOM     13  C   UNL     1      46.475  82.355  39.118  0.00  0.00    -0.035 C 
ATOM     14  C   UNL     1      46.023  81.144  39.315  0.00  0.00    -0.047 C 
ATOM     15  C   UNL     1      46.316  80.460  40.588  0.00  0.00    +0.015 C 
ATOM     16  C   UNL     1      46.222  78.965  40.351  0.00  0.00    +0.006 C 
ATOM     17  C   UNL     1      44.849  78.568  39.875  0.00  0.00    +0.034 C 
ATOM     18  C   UNL     1      44.225  79.505  38.899  0.00  0.00    +0.156 C 
ATOM     19  C   UNL     1      45.237  80.449  38.290  0.00  0.00    +0.055 C 
ATOM     20  O   UNL     1      43.241  80.313  39.504  0.00  0.00    -0.223 OA
ATOM     21  C   UNL     1      45.336  80.860  41.654  0.00  0.00    +0.004 C 
ENDROOT
TORSDOF 0
