REMARK  Name = Pravastatin
REMARK  11 active torsions:
REMARK  status: ('A' for Active; 'I' for Inactive)
REMARK    1  A    between atoms: C_2  and  C_3
REMARK    2  A    between atoms: C_3  and  C_5
REMARK    3  A    between atoms: C_5  and  O_7
REMARK    4  A    between atoms: O_7  and  C_8
REMARK    5  A    between atoms: C_14  and  C_19
REMARK    6  A    between atoms: C_19  and  C_20
REMARK    7  A    between atoms: C_20  and  C_21
REMARK    8  A    between atoms: C_21  and  C_22
REMARK    9  A    between atoms: C_22  and  C_23
REMARK   10  A    between atoms: C_23  and  C_24
REMARK   11  A    between atoms: C_24  and  C_25
REMARK                            x       y       z     vdW  Elec       q    Type
REMARK                         _______ _______ _______ _____ _____    ______ ____
ROOT
ATOM      1  C   UNL     1      46.886  80.176  40.422  0.00  0.00    +0.176 C 
ATOM      2  C   UNL     1      47.030  81.116  39.200  0.00  0.00    +0.081 C 
ATOM      3  C   UNL     1      45.675  81.765  39.051  0.00  0.00    +0.177 C 
ATOM      4  C   UNL     1      44.748  80.657  38.705  0.00  0.00    +0.002 C 
ATOM      5  C   UNL     1      44.940  79.449  39.161  0.00  0.00    -0.021 C 
ATOM      6  C   UNL     1      46.051  78.994  40.049  0.00  0.00    +0.063 C 
ATOM      7  C   UNL     1      45.516  78.197  41.208  0.00  0.00    +0.012 C 
ATOM      8  C   UNL     1      44.227  77.495  40.993  0.00  0.00    +0.022 C 
ATOM      9  C   UNL     1      43.645  77.492  39.663  0.00  0.00    -0.027 C 
ATOM     10  C   UNL     1      43.969  78.409  38.779  0.00  0.00    -0.009 C 
ATOM     11  C   UNL     1      43.145  78.116  41.908  0.00  0.00    +0.005 C 
ATOM     12  O   UNL     1      45.259  82.226  40.322  0.00  0.00    -0.218 OA
ENDROOT
BRANCH   1  13
ATOM     13  O   UNL     1      48.151  79.926  40.951  0.00  0.00    -0.452 OA
BRANCH  13  14
ATOM     14  C   UNL     1      48.836  80.890  41.639  0.00  0.00    +0.316 C 
ATOM     15  O   UNL     1      48.332  82.069  41.623  0.00  0.00    -0.250 OA
BRANCH  14  16
ATOM     16  C   UNL     1      50.104  80.686  42.395  0.00  0.00    +0.099 C 
ATOM     17  C   UNL     1      49.797  80.580  43.850  0.00  0.00    +0.012 C 
BRANCH  16  19
ATOM     18  C   UNL     1      50.642  79.235  40.401  0.00  0.00    +0.001 C 
ATOM     19  C   UNL     1      50.695  79.377  41.888  0.00  0.00    +0.011 C 
ENDBRANCH  16  19
ENDBRANCH  14  16
ENDBRANCH  13  14
ENDBRANCH   1  13
BRANCH   7  20
ATOM     20  C   UNL     1      46.512  77.467  42.019  0.00  0.00    +0.003 C 
BRANCH  20  21
ATOM     21  C   UNL     1      46.162  76.323  42.859  0.00  0.00    +0.033 C 
BRANCH  21  22
ATOM     22  C   UNL     1      46.000  74.979  42.241  0.00  0.00    +0.155 C 
ATOM     23  O   UNL     1      45.621  75.092  40.867  0.00  0.00    -0.223 OA
BRANCH  22  24
ATOM     24  C   UNL     1      47.254  74.148  42.171  0.00  0.00    +0.066 C 
BRANCH  24  25
ATOM     25  C   UNL     1      47.256  72.879  42.934  0.00  0.00    +0.166 C 
ATOM     26  O   UNL     1      47.281  73.197  44.318  0.00  0.00    -0.222 OA
BRANCH  25  27
ATOM     27  C   UNL     1      48.574  72.103  42.711  0.00  0.00    +0.147 C 
BRANCH  27  28
ATOM     28  C   UNL     1      48.531  70.843  43.482  0.00  0.00    +0.367 C 
ATOM     29  O   UNL     1      49.531  70.099  43.632  0.00  0.00    -0.246 OA
ATOM     30  O   UNL     1      47.356  70.396  44.101  0.00  0.00    -0.246 OA
ENDBRANCH  27  28
ENDBRANCH  25  27
ENDBRANCH  24  25
ENDBRANCH  22  24
ENDBRANCH  21  22
ENDBRANCH  20  21
ENDBRANCH   7  20
TORSDOF 11
