REMARK  Name = Praziquantel
REMARK  1 active torsions:
REMARK  status: ('A' for Active; 'I' for Inactive)
REMARK    1  A    between atoms: C_4  and  C_7
REMARK                            x       y       z     vdW  Elec       q    Type
REMARK                         _______ _______ _______ _____ _____    ______ ____
ROOT
ATOM      1  C   UNL     1      48.451  82.098  41.002  0.00  0.00    +0.226 C 
ATOM      2  O   UNL     1      49.463  81.927  40.200  0.00  0.00    -0.275 OA
ATOM      3  N   UNL     1      47.232  81.672  40.482  0.00  0.00    -0.269 N 
ATOM      4  C   UNL     1      46.885  80.246  40.588  0.00  0.00    +0.118 C 
ATOM      5  C   UNL     1      45.360  80.139  40.657  0.00  0.00    +0.117 C 
ATOM      6  C   UNL     1      44.886  78.837  41.064  0.00  0.00    -0.007 A 
ATOM      7  C   UNL     1      45.168  78.342  42.315  0.00  0.00    -0.003 A 
ATOM      8  C   UNL     1      44.752  77.115  42.770  0.00  0.00    -0.000 A 
ATOM      9  C   UNL     1      44.003  76.346  41.896  0.00  0.00    -0.000 A 
ATOM     10  C   UNL     1      43.709  76.823  40.637  0.00  0.00    -0.004 A 
ATOM     11  C   UNL     1      44.142  78.061  40.209  0.00  0.00    -0.023 A 
ATOM     12  C   UNL     1      43.765  78.466  38.837  0.00  0.00    +0.048 C 
ATOM     13  C   UNL     1      43.847  79.951  38.610  0.00  0.00    +0.098 C 
ATOM     14  N   UNL     1      44.888  80.580  39.361  0.00  0.00    -0.274 N 
ATOM     15  C   UNL     1      45.551  81.731  38.848  0.00  0.00    +0.246 C 
ATOM     16  O   UNL     1      45.521  82.038  37.640  0.00  0.00    -0.273 OA
ATOM     17  C   UNL     1      46.306  82.575  39.868  0.00  0.00    +0.179 C 
ENDROOT
BRANCH   1  21
ATOM     18  C   UNL     1      49.778  84.311  44.331  0.00  0.00    +0.000 C 
ATOM     19  C   UNL     1      50.716  83.969  43.167  0.00  0.00    +0.000 C 
ATOM     20  C   UNL     1      50.209  82.656  42.616  0.00  0.00    +0.009 C 
ATOM     21  C   UNL     1      48.757  82.699  42.294  0.00  0.00    +0.077 C 
ATOM     22  C   UNL     1      48.173  84.104  42.408  0.00  0.00    +0.009 C 
ATOM     23  C   UNL     1      48.421  84.653  43.781  0.00  0.00    +0.000 C 
ENDBRANCH   1  21
TORSDOF 1
