REMARK  Name = Prazosin
REMARK  3 active torsions:
REMARK  status: ('A' for Active; 'I' for Inactive)
REMARK    1  A    between atoms: O_2  and  C_3
REMARK    2  A    between atoms: C_4  and  O_27
REMARK    3  A    between atoms: C_19  and  C_21
REMARK                            x       y       z     vdW  Elec       q    Type
REMARK                         _______ _______ _______ _____ _____    ______ ____
ROOT
ATOM      1  C   UNL     1      42.564  78.232  39.421  0.00  0.00    +0.173 A 
ATOM      2  C   UNL     1      43.114  77.382  40.376  0.00  0.00    +0.174 A 
ATOM      3  C   UNL     1      44.343  77.723  40.885  0.00  0.00    +0.059 A 
ATOM      4  C   UNL     1      44.984  78.890  40.432  0.00  0.00    +0.090 A 
ATOM      5  C   UNL     1      44.405  79.704  39.485  0.00  0.00    +0.056 A 
ATOM      6  C   UNL     1      43.172  79.371  38.968  0.00  0.00    +0.044 A 
ATOM      7  C   UNL     1      45.067  80.844  39.067  0.00  0.00    +0.174 A 
ATOM      8  N   UNL     1      46.267  81.110  39.615  0.00  0.00    -0.195 NA
ATOM      9  C   UNL     1      46.864  80.341  40.541  0.00  0.00    +0.221 A 
ATOM     10  N   UNL     1      46.186  79.239  40.920  0.00  0.00    -0.213 NA
ATOM     11  N   UNL     1      48.126  80.664  41.086  0.00  0.00    -0.275 N 
ATOM     12  C   UNL     1      49.126  81.220  40.208  0.00  0.00    +0.115 C 
ATOM     13  C   UNL     1      50.450  81.302  40.945  0.00  0.00    +0.115 C 
ATOM     14  N   UNL     1      50.242  82.000  42.184  0.00  0.00    -0.270 N 
ATOM     15  C   UNL     1      49.159  81.651  43.079  0.00  0.00    +0.115 C 
ATOM     16  C   UNL     1      48.420  80.452  42.474  0.00  0.00    +0.115 C 
ATOM     17  C   UNL     1      51.118  83.055  42.547  0.00  0.00    +0.284 C 
ATOM     18  O   UNL     1      52.234  83.182  41.984  0.00  0.00    -0.267 OA
ATOM     19  N   UNL     1      44.472  81.684  38.091  0.00  0.00    -0.107 NA
ENDROOT
BRANCH  17  20
ATOM     20  C   UNL     1      50.738  84.017  43.590  0.00  0.00    +0.199 A 
ATOM     21  C   UNL     1      50.223  85.270  43.406  0.00  0.00    +0.045 A 
ATOM     22  C   UNL     1      50.002  85.850  44.642  0.00  0.00    +0.044 A 
ATOM     23  C   UNL     1      50.411  84.875  45.547  0.00  0.00    +0.180 A 
ATOM     24  O   UNL     1      50.828  83.834  44.877  0.00  0.00    -0.446 OA
ENDBRANCH  17  20
BRANCH   1  26
ATOM     25  C   UNL     1      40.928  78.288  37.626  0.00  0.00    +0.253 C 
ATOM     26  O   UNL     1      41.323  77.872  38.918  0.00  0.00    -0.468 OA
ENDBRANCH   1  26
BRANCH   2  27
ATOM     27  O   UNL     1      42.422  76.257  40.769  0.00  0.00    -0.468 OA
ATOM     28  C   UNL     1      42.962  75.443  41.785  0.00  0.00    +0.253 C 
ENDBRANCH   2  27
TORSDOF 3
