REMARK  Name = Prazepam
REMARK  3 active torsions:
REMARK  status: ('A' for Active; 'I' for Inactive)
REMARK    1  A    between atoms: C_3  and  C_4
REMARK    2  A    between atoms: C_4  and  N_5
REMARK    3  A    between atoms: C_10  and  C_18
REMARK                            x       y       z     vdW  Elec       q    Type
REMARK                         _______ _______ _______ _____ _____    ______ ____
ROOT
ATOM      1  N   UNL     1      45.965  81.006  40.019  0.00  0.00    -0.257 N 
ATOM      2  C   UNL     1      45.782  81.278  38.597  0.00  0.00    +0.254 C 
ATOM      3  O   UNL     1      45.660  82.478  38.298  0.00  0.00    -0.272 OA
ATOM      4  C   UNL     1      45.740  80.210  37.547  0.00  0.00    +0.210 C 
ATOM      5  N   UNL     1      44.551  79.390  37.732  0.00  0.00    -0.261 NA
ATOM      6  C   UNL     1      44.150  78.761  38.808  0.00  0.00    +0.078 C 
ATOM      7  C   UNL     1      44.845  78.749  40.070  0.00  0.00    +0.032 A 
ATOM      8  C   UNL     1      45.571  79.791  40.663  0.00  0.00    +0.055 A 
ATOM      9  C   UNL     1      46.077  79.643  41.922  0.00  0.00    +0.016 A 
ATOM     10  C   UNL     1      45.905  78.482  42.645  0.00  0.00    +0.013 A 
ATOM     11  C   UNL     1      45.193  77.433  42.063  0.00  0.00    +0.058 A 
ATOM     12  C   UNL     1      44.678  77.600  40.774  0.00  0.00    +0.014 A 
ATOM     13 CL   UNL     1      44.933  75.929  42.915  0.00  0.00    -0.082 Cl
ENDROOT
BRANCH   6  14
ATOM     14  C   UNL     1      42.896  78.043  38.716  0.00  0.00    +0.017 A 
ATOM     15  C   UNL     1      41.923  78.136  37.785  0.00  0.00    +0.001 A 
ATOM     16  C   UNL     1      40.741  77.455  37.882  0.00  0.00    +0.000 A 
ATOM     17  C   UNL     1      40.508  76.627  38.963  0.00  0.00    +0.000 A 
ATOM     18  C   UNL     1      41.475  76.504  39.929  0.00  0.00    +0.000 A 
ATOM     19  C   UNL     1      42.644  77.193  39.813  0.00  0.00    +0.001 A 
ENDBRANCH   6  14
BRANCH   1  20
ATOM     20  C   UNL     1      46.525  82.066  40.785  0.00  0.00    +0.098 C 
BRANCH  20  23
ATOM     21  C   UNL     1      49.084  81.337  40.453  0.00  0.00    +0.002 C 
ATOM     22  C   UNL     1      48.946  82.087  41.727  0.00  0.00    +0.002 C 
ATOM     23  C   UNL     1      47.978  82.325  40.563  0.00  0.00    +0.020 C 
ENDBRANCH  20  23
ENDBRANCH   1  20
TORSDOF 3
