REMARK  Name = Prednisolone
REMARK  2 active torsions:
REMARK  status: ('A' for Active; 'I' for Inactive)
REMARK    1  A    between atoms: C_10  and  C_11
REMARK    2  A    between atoms: C_11  and  C_13
REMARK                            x       y       z     vdW  Elec       q    Type
REMARK                         _______ _______ _______ _____ _____    ______ ____
ROOT
ATOM      1  C   UNL     1      48.641  82.123  39.450  0.00  0.00    +0.003 C 
ATOM      2  C   UNL     1      47.702  81.740  40.571  0.00  0.00    +0.035 C 
ATOM      3  C   UNL     1      46.344  82.268  40.189  0.00  0.00    +0.036 C 
ATOM      4  C   UNL     1      45.691  81.375  39.162  0.00  0.00    +0.153 C 
ATOM      5  C   UNL     1      45.500  80.033  39.829  0.00  0.00    +0.038 C 
ATOM      6  C   UNL     1      46.778  79.388  40.213  0.00  0.00    +0.003 C 
ATOM      7  C   UNL     1      47.731  80.314  40.924  0.00  0.00    +0.003 C 
ATOM      8  C   UNL     1      47.316  80.260  42.402  0.00  0.00    +0.003 C 
ATOM      9  C   UNL     1      48.013  81.449  42.977  0.00  0.00    +0.038 C 
ATOM     10  C   UNL     1      48.118  82.436  41.857  0.00  0.00    +0.180 C 
ATOM     11  O   UNL     1      47.214  83.490  42.142  0.00  0.00    -0.218 OA
ATOM     12  C   UNL     1      46.502  78.180  41.073  0.00  0.00    +0.004 C 
ATOM     13  C   UNL     1      45.650  77.154  40.355  0.00  0.00    +0.022 C 
ATOM     14  C   UNL     1      44.450  77.867  39.778  0.00  0.00    -0.038 C 
ATOM     15  C   UNL     1      43.283  77.339  40.004  0.00  0.00    +0.034 C 
ATOM     16  C   UNL     1      42.045  77.934  39.508  0.00  0.00    +0.195 C 
ATOM     17  O   UNL     1      40.947  77.392  39.748  0.00  0.00    -0.287 OA
ATOM     18  C   UNL     1      42.219  79.157  38.746  0.00  0.00    +0.038 C 
ATOM     19  C   UNL     1      43.398  79.664  38.532  0.00  0.00    -0.020 C 
ATOM     20  C   UNL     1      44.648  79.091  39.005  0.00  0.00    +0.036 C 
ATOM     21  C   UNL     1      45.374  78.631  37.726  0.00  0.00    +0.009 C 
ATOM     22  O   UNL     1      46.405  81.272  37.978  0.00  0.00    -0.223 OA
ENDROOT
BRANCH  10  23
ATOM     23  C   UNL     1      49.510  82.967  41.803  0.00  0.00    +0.211 C 
ATOM     24  O   UNL     1      49.722  84.155  41.933  0.00  0.00    -0.291 OA
BRANCH  23  25
ATOM     25  C   UNL     1      50.665  82.065  41.590  0.00  0.00    +0.248 C 
ATOM     26  O   UNL     1      51.824  82.799  41.349  0.00  0.00    -0.212 OA
ENDBRANCH  23  25
ENDBRANCH  10  23
TORSDOF 2
