REMARK  Name = Prednimustine
REMARK  13 active torsions:
REMARK  status: ('A' for Active; 'I' for Inactive)
REMARK    1  A    between atoms: C_10  and  C_11
REMARK    2  A    between atoms: C_11  and  C_13
REMARK    3  A    between atoms: C_13  and  O_14
REMARK    4  A    between atoms: O_14  and  C_15
REMARK    5  A    between atoms: C_15  and  C_17
REMARK    6  A    between atoms: C_17  and  C_18
REMARK    7  A    between atoms: C_18  and  C_19
REMARK    8  A    between atoms: C_19  and  C_20
REMARK    9  A    between atoms: C_23  and  N_26
REMARK   10  A    between atoms: N_26  and  C_27
REMARK   11  A    between atoms: N_26  and  C_30
REMARK   12  A    between atoms: C_27  and  C_28
REMARK   13  A    between atoms: C_30  and  C_31
REMARK                            x       y       z     vdW  Elec       q    Type
REMARK                         _______ _______ _______ _____ _____    ______ ____
ROOT
ATOM      1  C   UNL     1      49.086  80.531  43.845  0.00  0.00    +0.003 C 
ATOM      2  C   UNL     1      49.205  81.845  43.035  0.00  0.00    +0.035 C 
ATOM      3  C   UNL     1      50.449  81.681  42.234  0.00  0.00    +0.036 C 
ATOM      4  C   UNL     1      51.615  82.415  42.926  0.00  0.00    +0.153 C 
ATOM      5  C   UNL     1      51.267  83.847  42.861  0.00  0.00    +0.038 C 
ATOM      6  C   UNL     1      50.086  84.100  43.783  0.00  0.00    +0.003 C 
ATOM      7  C   UNL     1      49.214  82.944  44.030  0.00  0.00    +0.003 C 
ATOM      8  C   UNL     1      47.745  83.243  44.221  0.00  0.00    +0.003 C 
ATOM      9  C   UNL     1      47.081  82.876  42.917  0.00  0.00    +0.038 C 
ATOM     10  C   UNL     1      47.952  81.878  42.218  0.00  0.00    +0.181 C 
ATOM     11  O   UNL     1      47.314  80.635  42.231  0.00  0.00    -0.218 OA
ATOM     12  C   UNL     1      49.370  85.376  43.322  0.00  0.00    +0.004 C 
ATOM     13  C   UNL     1      50.458  86.465  43.200  0.00  0.00    +0.022 C 
ATOM     14  C   UNL     1      51.708  85.931  43.897  0.00  0.00    -0.038 C 
ATOM     15  C   UNL     1      52.094  86.435  45.027  0.00  0.00    +0.034 C 
ATOM     16  C   UNL     1      53.291  85.885  45.651  0.00  0.00    +0.195 C 
ATOM     17  O   UNL     1      53.687  86.360  46.751  0.00  0.00    -0.287 OA
ATOM     18  C   UNL     1      53.984  84.799  44.969  0.00  0.00    +0.038 C 
ATOM     19  C   UNL     1      53.538  84.336  43.824  0.00  0.00    -0.020 C 
ATOM     20  C   UNL     1      52.365  84.838  43.151  0.00  0.00    +0.036 C 
ATOM     21  C   UNL     1      52.806  85.498  41.821  0.00  0.00    +0.009 C 
ATOM     22  O   UNL     1      52.812  82.062  42.299  0.00  0.00    -0.223 OA
ENDROOT
BRANCH  10  23
ATOM     23  C   UNL     1      48.109  82.297  40.832  0.00  0.00    +0.222 C 
ATOM     24  O   UNL     1      48.733  83.276  40.450  0.00  0.00    -0.290 OA
BRANCH  23  25
ATOM     25  C   UNL     1      47.489  81.514  39.748  0.00  0.00    +0.275 C 
BRANCH  25  26
ATOM     26  O   UNL     1      46.091  81.634  39.644  0.00  0.00    -0.440 OA
BRANCH  26  27
ATOM     27  C   UNL     1      45.323  80.754  38.901  0.00  0.00    +0.317 C 
ATOM     28  O   UNL     1      44.887  81.143  37.793  0.00  0.00    -0.250 OA
BRANCH  27  29
ATOM     29  C   UNL     1      45.002  79.389  39.359  0.00  0.00    +0.110 C 
BRANCH  29  30
ATOM     30  C   UNL     1      43.667  78.988  38.832  0.00  0.00    +0.016 C 
BRANCH  30  31
ATOM     31  C   UNL     1      43.263  77.592  39.253  0.00  0.00    +0.027 C 
BRANCH  31  32
ATOM     32  C   UNL     1      41.970  77.189  38.636  0.00  0.00    -0.022 A 
ATOM     33  C   UNL     1      41.349  76.051  39.063  0.00  0.00    -0.003 A 
ATOM     34  C   UNL     1      40.146  75.639  38.513  0.00  0.00    +0.014 A 
ATOM     35  C   UNL     1      39.495  76.357  37.491  0.00  0.00    +0.048 A 
ATOM     36  C   UNL     1      40.160  77.493  37.099  0.00  0.00    +0.014 A 
ATOM     37  C   UNL     1      41.372  77.906  37.655  0.00  0.00    -0.003 A 
BRANCH  35  38
ATOM     38  N   UNL     1      38.258  75.915  36.949  0.00  0.00    -0.305 N 
BRANCH  38  39
ATOM     39  C   UNL     1      38.307  74.571  36.321  0.00  0.00    +0.108 C 
BRANCH  39  40
ATOM     40  C   UNL     1      39.468  74.373  35.415  0.00  0.00    +0.116 C 
ATOM     41 CL   UNL     1      39.546  72.766  34.742  0.00  0.00    -0.112 Cl
ENDBRANCH  39  40
ENDBRANCH  38  39
BRANCH  38  42
ATOM     42  C   UNL     1      36.993  76.514  36.960  0.00  0.00    +0.108 C 
BRANCH  42  43
ATOM     43  C   UNL     1      36.036  76.428  38.075  0.00  0.00    +0.116 C 
ATOM     44 CL   UNL     1      36.572  77.280  39.561  0.00  0.00    -0.112 Cl
ENDBRANCH  42  43
ENDBRANCH  38  42
ENDBRANCH  35  38
ENDBRANCH  31  32
ENDBRANCH  30  31
ENDBRANCH  29  30
ENDBRANCH  27  29
ENDBRANCH  26  27
ENDBRANCH  25  26
ENDBRANCH  23  25
ENDBRANCH  10  23
TORSDOF 13
