REMARK  Name = Prednisone
REMARK  2 active torsions:
REMARK  status: ('A' for Active; 'I' for Inactive)
REMARK    1  A    between atoms: C_11  and  C_12
REMARK    2  A    between atoms: C_12  and  C_14
REMARK                            x       y       z     vdW  Elec       q    Type
REMARK                         _______ _______ _______ _____ _____    ______ ____
ROOT
ATOM      1  C   UNL     1      49.472  83.864  40.500  0.00  0.00    +0.003 C 
ATOM      2  C   UNL     1      48.900  82.836  41.446  0.00  0.00    +0.039 C 
ATOM      3  C   UNL     1      49.443  81.515  41.021  0.00  0.00    +0.067 C 
ATOM      4  C   UNL     1      48.423  80.425  40.888  0.00  0.00    +0.151 C 
ATOM      5  O   UNL     1      48.774  79.308  41.223  0.00  0.00    -0.296 OA
ATOM      6  C   UNL     1      47.123  80.836  40.368  0.00  0.00    +0.065 C 
ATOM      7  C   UNL     1      46.574  81.791  41.445  0.00  0.00    +0.008 C 
ATOM      8  C   UNL     1      47.409  82.986  41.463  0.00  0.00    +0.004 C 
ATOM      9  C   UNL     1      47.128  83.975  42.563  0.00  0.00    +0.003 C 
ATOM     10  C   UNL     1      48.478  84.440  43.107  0.00  0.00    +0.038 C 
ATOM     11  C   UNL     1      49.300  83.196  42.858  0.00  0.00    +0.180 C 
ATOM     12  O   UNL     1      48.789  82.222  43.754  0.00  0.00    -0.218 OA
ATOM     13  C   UNL     1      46.324  81.005  42.656  0.00  0.00    +0.005 C 
ATOM     14  C   UNL     1      45.070  80.157  42.406  0.00  0.00    +0.022 C 
ATOM     15  C   UNL     1      44.913  79.958  40.908  0.00  0.00    -0.038 C 
ATOM     16  C   UNL     1      43.716  79.980  40.413  0.00  0.00    +0.034 C 
ATOM     17  C   UNL     1      43.450  79.804  38.984  0.00  0.00    +0.195 C 
ATOM     18  O   UNL     1      42.285  79.829  38.544  0.00  0.00    -0.287 OA
ATOM     19  C   UNL     1      44.627  79.604  38.163  0.00  0.00    +0.038 C 
ATOM     20  C   UNL     1      45.827  79.583  38.677  0.00  0.00    -0.019 C 
ATOM     21  C   UNL     1      46.110  79.752  40.106  0.00  0.00    +0.040 C 
ATOM     22  C   UNL     1      46.672  78.381  40.547  0.00  0.00    +0.009 C 
ENDROOT
BRANCH  11  23
ATOM     23  C   UNL     1      50.718  83.307  43.133  0.00  0.00    +0.211 C 
ATOM     24  O   UNL     1      51.082  84.132  44.002  0.00  0.00    -0.291 OA
BRANCH  23  25
ATOM     25  C   UNL     1      51.844  82.564  42.516  0.00  0.00    +0.248 C 
ATOM     26  O   UNL     1      52.954  83.425  42.273  0.00  0.00    -0.212 OA
ENDBRANCH  23  25
ENDBRANCH  11  23
TORSDOF 2
