REMARK  Name = Prednicarbate
REMARK  9 active torsions:
REMARK  status: ('A' for Active; 'I' for Inactive)
REMARK    1  A    between atoms: C_2  and  C_3
REMARK    2  A    between atoms: C_3  and  O_5
REMARK    3  A    between atoms: O_5  and  C_6
REMARK    4  A    between atoms: C_6  and  C_7
REMARK    5  A    between atoms: C_7  and  C_9
REMARK    6  A    between atoms: C_9  and  O_30
REMARK    7  A    between atoms: O_30  and  C_31
REMARK    8  A    between atoms: C_31  and  O_33
REMARK    9  A    between atoms: O_33  and  C_34
REMARK                            x       y       z     vdW  Elec       q    Type
REMARK                         _______ _______ _______ _____ _____    ______ ____
ROOT
ATOM      1  C   UNL     1      44.001  78.130  39.795  0.00  0.00    +0.193 C 
ATOM      2  C   UNL     1      43.380  78.968  40.979  0.00  0.00    +0.048 C 
ATOM      3  C   UNL     1      44.537  79.172  41.885  0.00  0.00    +0.004 C 
ATOM      4  C   UNL     1      45.765  78.934  41.030  0.00  0.00    +0.004 C 
ATOM      5  C   UNL     1      45.254  78.928  39.605  0.00  0.00    +0.043 C 
ATOM      6  C   UNL     1      45.066  80.298  39.063  0.00  0.00    +0.037 C 
ATOM      7  C   UNL     1      46.203  81.254  39.379  0.00  0.00    +0.153 C 
ATOM      8  C   UNL     1      46.447  81.310  40.867  0.00  0.00    +0.038 C 
ATOM      9  C   UNL     1      46.808  79.941  41.330  0.00  0.00    +0.003 C 
ATOM     10  C   UNL     1      47.035  79.840  42.832  0.00  0.00    +0.004 C 
ATOM     11  C   UNL     1      47.693  81.071  43.407  0.00  0.00    +0.022 C 
ATOM     12  C   UNL     1      48.379  81.715  42.255  0.00  0.00    -0.038 C 
ATOM     13  C   UNL     1      49.673  81.683  42.202  0.00  0.00    +0.034 C 
ATOM     14  C   UNL     1      50.351  82.302  41.094  0.00  0.00    +0.195 C 
ATOM     15  O   UNL     1      51.607  82.272  41.040  0.00  0.00    -0.287 OA
ATOM     16  C   UNL     1      49.529  82.945  40.068  0.00  0.00    +0.038 C 
ATOM     17  C   UNL     1      48.203  82.963  40.147  0.00  0.00    -0.020 C 
ATOM     18  C   UNL     1      47.474  82.352  41.244  0.00  0.00    +0.036 C 
ATOM     19  C   UNL     1      46.792  83.499  42.009  0.00  0.00    +0.009 C 
ATOM     20  O   UNL     1      45.682  82.504  38.923  0.00  0.00    -0.223 OA
ATOM     21  C   UNL     1      46.317  78.249  38.776  0.00  0.00    +0.004 C 
ENDROOT
BRANCH   1  22
ATOM     22  C   UNL     1      42.986  78.261  38.755  0.00  0.00    +0.230 C 
ATOM     23  O   UNL     1      43.188  78.837  37.687  0.00  0.00    -0.288 OA
BRANCH  22  24
ATOM     24  C   UNL     1      41.631  77.706  38.934  0.00  0.00    +0.276 C 
BRANCH  24  25
ATOM     25  O   UNL     1      40.981  77.496  37.671  0.00  0.00    -0.440 OA
BRANCH  25  26
ATOM     26  C   UNL     1      39.708  76.931  37.588  0.00  0.00    +0.317 C 
ATOM     27  O   UNL     1      39.211  76.536  38.672  0.00  0.00    -0.250 OA
BRANCH  26  29
ATOM     28  C   UNL     1      39.428  75.534  35.630  0.00  0.00    +0.012 C 
ATOM     29  C   UNL     1      38.964  76.791  36.329  0.00  0.00    +0.110 C 
ENDBRANCH  26  29
ENDBRANCH  25  26
ENDBRANCH  24  25
ENDBRANCH  22  24
ENDBRANCH   1  22
BRANCH   1  30
ATOM     30  O   UNL     1      44.223  76.908  40.371  0.00  0.00    -0.418 OA
BRANCH  30  31
ATOM     31  C   UNL     1      43.645  75.700  40.245  0.00  0.00    +0.512 C 
ATOM     32  O   UNL     1      42.417  75.594  40.466  0.00  0.00    -0.203 OA
BRANCH  31  33
ATOM     33  O   UNL     1      44.360  74.541  39.873  0.00  0.00    -0.418 OA
BRANCH  33  34
ATOM     34  C   UNL     1      43.711  73.263  39.945  0.00  0.00    +0.212 C 
ATOM     35  C   UNL     1      43.150  72.962  38.569  0.00  0.00    +0.051 C 
ENDBRANCH  33  34
ENDBRANCH  31  33
ENDBRANCH  30  31
ENDBRANCH   1  30
TORSDOF 9
