REMARK  Name = Pretomanid
REMARK  6 active torsions:
REMARK  status: ('A' for Active; 'I' for Inactive)
REMARK    1  A    between atoms: C_2  and  O_13
REMARK    2  A    between atoms: C_7  and  N_10
REMARK    3  A    between atoms: O_13  and  C_14
REMARK    4  A    between atoms: C_14  and  C_15
REMARK    5  A    between atoms: C_18  and  O_21
REMARK    6  A    between atoms: O_21  and  C_22
REMARK                            x       y       z     vdW  Elec       q    Type
REMARK                         _______ _______ _______ _____ _____    ______ ____
ROOT
ATOM      1  O   UNL     1      46.576  79.608  40.264  0.00  0.00    -0.346 OA
ENDROOT
BRANCH   1   3
ATOM      2  C   UNL     1      44.388  79.690  41.041  0.00  0.00    +0.144 C 
ATOM      3  C   UNL     1      45.800  79.209  41.301  0.00  0.00    +0.182 C 
ATOM      4  C   UNL     1      45.846  77.709  41.507  0.00  0.00    +0.240 C 
ATOM      5  O   UNL     1      44.619  77.071  41.214  0.00  0.00    -0.445 OA
ATOM      6  C   UNL     1      43.845  77.542  40.165  0.00  0.00    +0.302 A 
ATOM      7  N   UNL     1      43.139  76.998  39.155  0.00  0.00    -0.170 NA
ATOM      8  C   UNL     1      42.557  77.943  38.399  0.00  0.00    +0.245 A 
ATOM      9  C   UNL     1      42.928  79.138  38.981  0.00  0.00    +0.124 A 
ATOM     10  N   UNL     1      43.709  78.880  40.051  0.00  0.00    -0.276 N 
BRANCH   8  11
ATOM     11  N   UNL     1      41.742  77.732  37.257  0.00  0.00    +0.077 N 
ATOM     12  O   UNL     1      41.252  78.710  36.667  0.00  0.00    -0.125 OA
ATOM     13  O   UNL     1      41.467  76.482  36.764  0.00  0.00    -0.125 OA
ENDBRANCH   8  11
ENDBRANCH   1   3
BRANCH   1  14
ATOM     14  C   UNL     1      46.769  80.946  40.063  0.00  0.00    +0.169 C 
BRANCH  14  15
ATOM     15  C   UNL     1      47.681  81.598  41.015  0.00  0.00    +0.007 A 
ATOM     16  C   UNL     1      47.199  82.199  42.147  0.00  0.00    +0.001 A 
ATOM     17  C   UNL     1      48.122  82.782  43.010  0.00  0.00    +0.037 A 
ATOM     18  C   UNL     1      49.480  82.790  42.790  0.00  0.00    +0.147 A 
ATOM     19  C   UNL     1      49.933  82.179  41.644  0.00  0.00    +0.037 A 
ATOM     20  C   UNL     1      49.063  81.589  40.762  0.00  0.00    +0.001 A 
BRANCH  18  21
ATOM     21  O   UNL     1      50.363  83.396  43.698  0.00  0.00    -0.404 OA
BRANCH  21  22
ATOM     22  C   UNL     1      50.516  84.823  43.653  0.00  0.00    +0.575 C 
ATOM     23  F   UNL     1      51.498  85.242  44.502  0.00  0.00    -0.133 F 
ATOM     24  F   UNL     1      50.802  85.150  42.343  0.00  0.00    -0.133 F 
ATOM     25  F   UNL     1      49.286  85.387  43.972  0.00  0.00    -0.133 F 
ENDBRANCH  21  22
ENDBRANCH  18  21
ENDBRANCH  14  15
ENDBRANCH   1  14
TORSDOF 6
