REMARK  Name = Prifinium
REMARK  4 active torsions:
REMARK  status: ('A' for Active; 'I' for Inactive)
REMARK    1  A    between atoms: C_2  and  N_3
REMARK    2  A    between atoms: N_3  and  C_22
REMARK    3  A    between atoms: C_7  and  C_8
REMARK    4  A    between atoms: C_7  and  C_14
REMARK                            x       y       z     vdW  Elec       q    Type
REMARK                         _______ _______ _______ _____ _____    ______ ____
ROOT
ATOM      1  N   UNL     1      45.655  80.129  39.825  0.00  0.00    +0.394 N 
ATOM      2  C   UNL     1      44.498  80.796  40.336  0.00  0.00    -0.068 C 
ATOM      3  C   UNL     1      45.098  81.767  41.369  0.00  0.00    -0.002 C 
ATOM      4  C   UNL     1      46.552  81.645  41.199  0.00  0.00    -0.065 C 
ATOM      5  C   UNL     1      47.512  81.851  42.047  0.00  0.00    -0.010 C 
ATOM      6  C   UNL     1      46.639  81.189  39.756  0.00  0.00    -0.035 C 
ATOM      7  C   UNL     1      46.194  82.361  38.933  0.00  0.00    -0.018 C 
ENDROOT
BRANCH   5   8
ATOM      8  C   UNL     1      47.789  80.958  43.206  0.00  0.00    -0.001 A 
ATOM      9  C   UNL     1      48.034  81.432  44.453  0.00  0.00    -0.000 A 
ATOM     10  C   UNL     1      48.322  80.569  45.516  0.00  0.00    -0.000 A 
ATOM     11  C   UNL     1      48.364  79.223  45.322  0.00  0.00    -0.000 A 
ATOM     12  C   UNL     1      48.109  78.763  44.038  0.00  0.00    -0.000 A 
ATOM     13  C   UNL     1      47.828  79.588  42.997  0.00  0.00    -0.000 A 
ENDBRANCH   5   8
BRANCH   5  14
ATOM     14  C   UNL     1      48.416  82.995  41.982  0.00  0.00    -0.001 A 
ATOM     15  C   UNL     1      48.653  83.765  43.082  0.00  0.00    -0.000 A 
ATOM     16  C   UNL     1      49.510  84.877  43.014  0.00  0.00    -0.000 A 
ATOM     17  C   UNL     1      50.122  85.194  41.809  0.00  0.00    -0.000 A 
ATOM     18  C   UNL     1      49.882  84.419  40.710  0.00  0.00    -0.000 A 
ATOM     19  C   UNL     1      49.039  83.337  40.806  0.00  0.00    -0.000 A 
ENDBRANCH   5  14
BRANCH   1  21
ATOM     20  C   UNL     1      44.085  79.048  38.222  0.00  0.00    -0.024 C 
ATOM     21  C   UNL     1      45.461  79.343  38.682  0.00  0.00    -0.073 C 
ENDBRANCH   1  21
BRANCH   1  22
ATOM     22  C   UNL     1      46.143  79.251  40.910  0.00  0.00    -0.073 C 
ATOM     23  C   UNL     1      46.696  77.964  40.348  0.00  0.00    -0.024 C 
ENDBRANCH   1  22
TORSDOF 4
