REMARK  Name = Primidone
REMARK  2 active torsions:
REMARK  status: ('A' for Active; 'I' for Inactive)
REMARK    1  A    between atoms: C_2  and  C_3
REMARK    2  A    between atoms: C_3  and  C_11
REMARK                            x       y       z     vdW  Elec       q    Type
REMARK                         _______ _______ _______ _____ _____    ______ ____
ROOT
ATOM      1  C   UNL     1      46.670  81.499  40.509  0.00  0.00    +0.159 C 
ATOM      2  C   UNL     1      46.352  82.187  39.268  0.00  0.00    +0.254 C 
ATOM      3  O   UNL     1      45.276  82.005  38.667  0.00  0.00    -0.272 OA
ATOM      4  N   UNL     1      47.276  83.095  38.706  0.00  0.00    -0.181 NA
ATOM      5  C   UNL     1      48.615  83.120  39.252  0.00  0.00    +0.229 C 
ATOM      6  N   UNL     1      49.022  81.855  39.781  0.00  0.00    -0.181 NA
ATOM      7  C   UNL     1      48.111  81.135  40.593  0.00  0.00    +0.254 C 
ATOM      8  O   UNL     1      48.452  80.223  41.367  0.00  0.00    -0.272 OA
ENDROOT
BRANCH   1   9
ATOM      9  C   UNL     1      45.940  80.178  40.466  0.00  0.00    -0.006 A 
ATOM     10  C   UNL     1      46.261  79.270  41.464  0.00  0.00    -0.003 A 
ATOM     11  C   UNL     1      45.651  78.022  41.524  0.00  0.00    -0.000 A 
ATOM     12  C   UNL     1      44.721  77.703  40.571  0.00  0.00    -0.000 A 
ATOM     13  C   UNL     1      44.409  78.626  39.572  0.00  0.00    -0.000 A 
ATOM     14  C   UNL     1      45.020  79.861  39.524  0.00  0.00    -0.003 A 
ENDBRANCH   1   9
BRANCH   1  16
ATOM     15  C   UNL     1      47.033  83.550  41.929  0.00  0.00    +0.001 C 
ATOM     16  C   UNL     1      46.343  82.256  41.758  0.00  0.00    +0.022 C 
ENDBRANCH   1  16
TORSDOF 2
