REMARK  Name = Primaquine
REMARK  6 active torsions:
REMARK  status: ('A' for Active; 'I' for Inactive)
REMARK    1  A    between atoms: C_2  and  C_3
REMARK    2  A    between atoms: C_2  and  N_7
REMARK    3  A    between atoms: C_3  and  C_4
REMARK    4  A    between atoms: C_4  and  C_5
REMARK    5  A    between atoms: N_7  and  C_8
REMARK    6  A    between atoms: C_12  and  O_14
REMARK                            x       y       z     vdW  Elec       q    Type
REMARK                         _______ _______ _______ _____ _____    ______ ____
ROOT
ATOM      1  C   UNL     1      47.152  80.617  41.856  0.00  0.00    +0.086 A 
ATOM      2  C   UNL     1      46.753  81.206  40.650  0.00  0.00    +0.096 A 
ATOM      3  C   UNL     1      45.778  80.615  39.876  0.00  0.00    +0.022 A 
ATOM      4  C   UNL     1      45.158  79.425  40.256  0.00  0.00    +0.038 A 
ATOM      5  C   UNL     1      45.545  78.844  41.438  0.00  0.00    +0.140 A 
ATOM      6  C   UNL     1      46.516  79.450  42.190  0.00  0.00    +0.054 A 
ATOM      7  C   UNL     1      45.382  81.198  38.679  0.00  0.00    +0.003 A 
ATOM      8  C   UNL     1      45.976  82.369  38.283  0.00  0.00    +0.021 A 
ATOM      9  C   UNL     1      46.944  82.934  39.074  0.00  0.00    +0.099 A 
ATOM     10  N   UNL     1      47.307  82.350  40.223  0.00  0.00    -0.243 NA
ENDROOT
BRANCH   5  11
ATOM     11  O   UNL     1      44.950  77.660  41.848  0.00  0.00    -0.471 OA
ATOM     12  C   UNL     1      43.880  77.054  41.193  0.00  0.00    +0.252 C 
ENDBRANCH   5  11
BRANCH   1  13
ATOM     13  N   UNL     1      48.130  81.281  42.622  0.00  0.00    -0.238 NA
BRANCH  13  15
ATOM     14  C   UNL     1      49.443  80.488  44.523  0.00  0.00    +0.023 C 
ATOM     15  C   UNL     1      49.410  80.757  43.009  0.00  0.00    +0.093 C 
BRANCH  15  16
ATOM     16  C   UNL     1      50.498  81.790  42.808  0.00  0.00    +0.023 C 
BRANCH  16  17
ATOM     17  C   UNL     1      51.099  81.824  41.450  0.00  0.00    +0.022 C 
BRANCH  17  18
ATOM     18  C   UNL     1      51.208  83.308  41.048  0.00  0.00    +0.109 C 
ATOM     19  N   UNL     1      52.597  83.552  40.635  0.00  0.00    -0.131 NA
ENDBRANCH  17  18
ENDBRANCH  16  17
ENDBRANCH  15  16
ENDBRANCH  13  15
ENDBRANCH   1  13
TORSDOF 6
