REMARK  Name = Prinomastat
REMARK  5 active torsions:
REMARK  status: ('A' for Active; 'I' for Inactive)
REMARK    1  A    between atoms: C_3  and  C_24
REMARK    2  A    between atoms: N_4  and  S_8
REMARK    3  A    between atoms: S_8  and  C_11
REMARK    4  A    between atoms: C_14  and  O_17
REMARK    5  A    between atoms: O_17  and  C_18
REMARK                            x       y       z     vdW  Elec       q    Type
REMARK                         _______ _______ _______ _____ _____    ______ ____
ROOT
ATOM      1  S   UNL     1      51.840  83.266  43.954  0.00  0.00    +0.064 S 
ATOM      2  O   UNL     1      51.860  84.742  43.998  0.00  0.00    -0.153 OA
ATOM      3  O   UNL     1      52.926  82.858  42.958  0.00  0.00    -0.153 OA
ENDROOT
BRANCH   1   7
ATOM      4  C   UNL     1      52.008  83.276  49.081  0.00  0.00    +0.013 C 
ATOM      5  C   UNL     1      52.554  82.612  47.858  0.00  0.00    +0.063 C 
ATOM      6  C   UNL     1      51.805  83.123  46.610  0.00  0.00    +0.168 C 
ATOM      7  N   UNL     1      52.304  82.492  45.440  0.00  0.00    -0.146 NA
ATOM      8  C   UNL     1      51.737  81.109  45.371  0.00  0.00    +0.108 C 
ATOM      9  C   UNL     1      52.585  80.221  46.240  0.00  0.00    +0.077 C 
ATOM     10  S   UNL     1      52.279  80.833  47.957  0.00  0.00    -0.139 S 
ATOM     11  C   UNL     1      54.040  82.833  47.715  0.00  0.00    +0.013 C 
BRANCH   6  12
ATOM     12  C   UNL     1      51.908  84.614  46.620  0.00  0.00    +0.287 C 
ATOM     13  O   UNL     1      50.874  85.332  46.522  0.00  0.00    -0.269 OA
ATOM     14  N   UNL     1      53.143  85.297  46.745  0.00  0.00    -0.027 NA
ATOM     15  O   UNL     1      53.260  86.644  46.542  0.00  0.00    -0.071 OA
ENDBRANCH   6  12
ENDBRANCH   1   7
BRANCH   1  16
ATOM     16  C   UNL     1      50.346  82.633  43.313  0.00  0.00    +0.122 A 
ATOM     17  C   UNL     1      49.144  83.187  43.695  0.00  0.00    +0.023 A 
ATOM     18  C   UNL     1      47.932  82.728  43.229  0.00  0.00    +0.039 A 
ATOM     19  C   UNL     1      47.881  81.675  42.345  0.00  0.00    +0.145 A 
ATOM     20  C   UNL     1      49.062  81.104  41.947  0.00  0.00    +0.039 A 
ATOM     21  C   UNL     1      50.276  81.578  42.425  0.00  0.00    +0.023 A 
BRANCH  19  22
ATOM     22  O   UNL     1      46.650  81.194  41.859  0.00  0.00    -0.453 OA
BRANCH  22  23
ATOM     23  C   UNL     1      46.245  81.510  40.565  0.00  0.00    +0.148 A 
ATOM     24  C   UNL     1      45.333  80.665  39.971  0.00  0.00    +0.058 A 
ATOM     25  C   UNL     1      44.938  80.993  38.676  0.00  0.00    +0.102 A 
ATOM     26  N   UNL     1      45.435  82.084  38.058  0.00  0.00    -0.242 NA
ATOM     27  C   UNL     1      46.326  82.894  38.661  0.00  0.00    +0.102 A 
ATOM     28  C   UNL     1      46.747  82.617  39.931  0.00  0.00    +0.058 A 
ENDBRANCH  22  23
ENDBRANCH  19  22
ENDBRANCH   1  16
TORSDOF 5
