REMARK  Name = Pristinamycin
REMARK  7 active torsions:
REMARK  status: ('A' for Active; 'I' for Inactive)
REMARK    1  A    between atoms: C_2  and  C_3
REMARK    2  A    between atoms: C_14  and  C_53
REMARK    3  A    between atoms: C_27  and  C_47
REMARK    4  A    between atoms: C_32  and  N_36
REMARK    5  A    between atoms: C_37  and  C_39
REMARK    6  A    between atoms: C_53  and  C_54
REMARK    7  A    between atoms: C_93  and  C_94
REMARK                            x       y       z     vdW  Elec       q    Type
REMARK                         _______ _______ _______ _____ _____    ______ ____
ROOT
ATOM      1  C   UNL     1      46.230  75.973  42.963  0.00  0.00    +0.171 C 
ATOM      2  C   UNL     1      46.345  77.315  43.662  0.00  0.00    +0.246 C 
ATOM      3  O   UNL     1      45.182  77.866  43.782  0.00  0.00    -0.273 OA
ATOM      4  N   UNL     1      47.487  77.936  44.138  0.00  0.00    -0.272 N 
ATOM      5  C   UNL     1      47.840  78.301  45.532  0.00  0.00    +0.094 C 
ATOM      6  C   UNL     1      49.130  77.492  45.659  0.00  0.00    +0.024 C 
ATOM      7  C   UNL     1      49.736  77.607  44.276  0.00  0.00    +0.031 C 
ATOM      8  C   UNL     1      48.666  78.425  43.484  0.00  0.00    +0.152 C 
ATOM      9  C   UNL     1      48.886  78.209  42.087  0.00  0.00    +0.244 C 
ATOM     10  O   UNL     1      49.427  77.100  41.715  0.00  0.00    -0.273 OA
ATOM     11  N   UNL     1      48.553  79.131  41.073  0.00  0.00    -0.270 N 
ATOM     12  C   UNL     1      47.383  79.947  41.094  0.00  0.00    +0.156 C 
ATOM     13  C   UNL     1      46.924  80.372  39.740  0.00  0.00    +0.244 C 
ATOM     14  O   UNL     1      47.781  80.664  38.826  0.00  0.00    -0.273 OA
ATOM     15  N   UNL     1      45.545  80.462  39.440  0.00  0.00    -0.271 N 
ATOM     16  C   UNL     1      45.128  81.526  38.511  0.00  0.00    +0.102 C 
ATOM     17  C   UNL     1      44.353  82.551  39.282  0.00  0.00    +0.086 C 
ATOM     18  C   UNL     1      43.350  81.788  40.094  0.00  0.00    +0.155 C 
ATOM     19  O   UNL     1      42.686  82.401  40.892  0.00  0.00    -0.296 OA
ATOM     20  C   UNL     1      43.166  80.331  39.934  0.00  0.00    +0.094 C 
ATOM     21  C   UNL     1      44.497  79.597  39.933  0.00  0.00    +0.161 C 
ATOM     22  C   UNL     1      44.476  78.362  39.107  0.00  0.00    +0.261 C 
ATOM     23  O   UNL     1      45.653  77.880  38.907  0.00  0.00    -0.272 OA
ATOM     24  N   UNL     1      43.365  77.715  38.559  0.00  0.00    -0.190 NA
ATOM     25  C   UNL     1      42.116  77.371  39.195  0.00  0.00    +0.216 C 
ATOM     26  C   UNL     1      41.998  75.869  39.078  0.00  0.00    +0.341 C 
ATOM     27  O   UNL     1      42.314  75.424  37.936  0.00  0.00    -0.248 OA
ATOM     28  O   UNL     1      41.591  75.138  40.118  0.00  0.00    -0.449 OA
ATOM     29  C   UNL     1      42.188  74.816  41.351  0.00  0.00    +0.198 C 
ATOM     30  C   UNL     1      43.537  74.157  41.237  0.00  0.00    +0.213 C 
ATOM     31  C   UNL     1      44.667  75.081  41.066  0.00  0.00    +0.265 C 
ATOM     32  O   UNL     1      45.157  75.013  39.844  0.00  0.00    -0.271 OA
ATOM     33  N   UNL     1      45.316  75.987  41.871  0.00  0.00    -0.196 NA
ATOM     34  C   UNL     1      42.047  75.942  42.283  0.00  0.00    +0.050 C 
ATOM     35  C   UNL     1      49.497  79.220  39.929  0.00  0.00    +0.115 C 
ENDROOT
BRANCH  25  36
ATOM     36  C   UNL     1      40.957  77.928  38.407  0.00  0.00    +0.008 A 
ATOM     37  C   UNL     1      40.114  78.791  39.044  0.00  0.00    -0.002 A 
ATOM     38  C   UNL     1      39.043  79.323  38.367  0.00  0.00    -0.000 A 
ATOM     39  C   UNL     1      38.786  79.006  37.038  0.00  0.00    -0.000 A 
ATOM     40  C   UNL     1      39.664  78.134  36.446  0.00  0.00    -0.000 A 
ATOM     41  C   UNL     1      40.741  77.589  37.099  0.00  0.00    -0.002 A 
ENDBRANCH  25  36
BRANCH  30  42
ATOM     42  N   UNL     1      43.713  73.104  42.199  0.00  0.00    -0.189 NA
ATOM     43  C   UNL     1      42.878  71.948  42.174  0.00  0.00    +0.286 C 
ATOM     44  O   UNL     1      41.929  71.862  41.315  0.00  0.00    -0.267 OA
BRANCH  43  45
ATOM     45  C   UNL     1      43.027  70.823  43.078  0.00  0.00    +0.175 A 
ATOM     46  C   UNL     1      42.336  69.643  42.893  0.00  0.00    +0.218 A 
ATOM     47  C   UNL     1      42.460  68.562  43.726  0.00  0.00    +0.045 A 
ATOM     48  C   UNL     1      43.308  68.639  44.802  0.00  0.00    +0.024 A 
ATOM     49  C   UNL     1      43.997  69.811  44.990  0.00  0.00    +0.099 A 
ATOM     50  N   UNL     1      43.846  70.865  44.137  0.00  0.00    -0.236 NA
ATOM     51  O   UNL     1      41.463  69.549  41.795  0.00  0.00    -0.285 OA
ENDBRANCH  43  45
ENDBRANCH  30  42
BRANCH   1  53
ATOM     52  C   UNL     1      47.236  74.187  44.444  0.00  0.00    +0.002 C 
ATOM     53  C   UNL     1      46.036  74.989  44.057  0.00  0.00    +0.031 C 
ENDBRANCH   1  53
BRANCH  12  54
ATOM     54  C   UNL     1      47.494  81.212  41.931  0.00  0.00    +0.056 C 
BRANCH  54  55
ATOM     55  C   UNL     1      48.860  81.675  42.148  0.00  0.00    -0.020 A 
ATOM     56  C   UNL     1      49.932  80.850  41.917  0.00  0.00    -0.004 A 
ATOM     57  C   UNL     1      51.249  81.249  42.111  0.00  0.00    -0.000 A 
ATOM     58  C   UNL     1      51.468  82.535  42.557  0.00  0.00    -0.000 A 
ATOM     59  C   UNL     1      50.405  83.359  42.789  0.00  0.00    -0.000 A 
ATOM     60  C   UNL     1      49.106  82.948  42.591  0.00  0.00    -0.004 A 
ENDBRANCH  54  55
ENDBRANCH  12  54
TORSDOF 6
REMARK  Name = Pristinamycin
REMARK  7 active torsions:
REMARK  status: ('A' for Active; 'I' for Inactive)
REMARK    1  A    between atoms: C_2  and  C_3
REMARK    2  A    between atoms: C_14  and  C_53
REMARK    3  A    between atoms: C_27  and  C_47
REMARK    4  A    between atoms: C_32  and  N_36
REMARK    5  A    between atoms: C_37  and  C_39
REMARK    6  A    between atoms: C_53  and  C_54
REMARK    7  A    between atoms: C_93  and  C_94
REMARK                            x       y       z     vdW  Elec       q    Type
REMARK                         _______ _______ _______ _____ _____    ______ ____
ROOT
ATOM      1  C   UNL     1      42.986  76.138  43.948  0.00  0.00    +0.008 C 
ATOM      2  C   UNL     1      44.352  76.614  43.480  0.00  0.00    +0.062 C 
ATOM      3  C   UNL     1      44.290  78.070  43.194  0.00  0.00    -0.018 C 
ATOM      4  C   UNL     1      45.126  78.972  43.682  0.00  0.00    +0.055 C 
ATOM      5  C   UNL     1      46.242  78.681  44.577  0.00  0.00    +0.265 C 
ATOM      6  O   UNL     1      46.298  79.339  45.684  0.00  0.00    -0.268 OA
ATOM      7  N   UNL     1      47.267  77.721  44.302  0.00  0.00    -0.197 NA
ATOM      8  C   UNL     1      48.019  77.659  43.070  0.00  0.00    +0.142 C 
ATOM      9  C   UNL     1      49.325  78.352  43.227  0.00  0.00    -0.003 C 
ATOM     10  C   UNL     1      49.992  79.001  42.318  0.00  0.00    -0.007 C 
ATOM     11  C   UNL     1      49.707  79.261  40.930  0.00  0.00    -0.024 C 
ATOM     12  C   UNL     1      48.806  80.114  40.442  0.00  0.00    +0.002 C 
ATOM     13  C   UNL     1      47.900  80.989  41.189  0.00  0.00    +0.181 C 
ATOM     14  C   UNL     1      46.542  81.006  40.547  0.00  0.00    +0.102 C 
ATOM     15  C   UNL     1      46.294  79.912  39.586  0.00  0.00    +0.163 C 
ATOM     16  O   UNL     1      46.865  78.850  39.723  0.00  0.00    -0.295 OA
ATOM     17  C   UNL     1      45.335  80.118  38.442  0.00  0.00    +0.150 C 
ATOM     18  C   UNL     1      43.946  80.003  39.000  0.00  0.00    +0.213 A 
ATOM     19  N   UNL     1      43.581  78.810  39.434  0.00  0.00    -0.207 NA
ATOM     20  C   UNL     1      42.324  78.821  39.912  0.00  0.00    +0.175 A 
ATOM     21  C   UNL     1      41.935  80.158  39.730  0.00  0.00    +0.205 A 
ATOM     22  O   UNL     1      42.937  80.805  39.187  0.00  0.00    -0.435 OA
ATOM     23  C   UNL     1      41.642  77.658  40.463  0.00  0.00    +0.274 C 
ATOM     24  O   UNL     1      40.843  77.904  41.441  0.00  0.00    -0.268 OA
ATOM     25  N   UNL     1      41.785  76.322  40.021  0.00  0.00    -0.248 N 
ATOM     26  C   UNL     1      40.771  75.246  39.975  0.00  0.00    +0.103 C 
ATOM     27  C   UNL     1      41.142  74.669  38.597  0.00  0.00    +0.049 C 
ATOM     28  C   UNL     1      42.637  74.736  38.658  0.00  0.00    -0.003 C 
ATOM     29  C   UNL     1      42.966  75.720  39.508  0.00  0.00    +0.126 C 
ATOM     30  C   UNL     1      44.333  76.128  39.877  0.00  0.00    +0.355 C 
ATOM     31  O   UNL     1      45.145  76.152  38.869  0.00  0.00    -0.243 OA
ATOM     32  O   UNL     1      44.782  76.462  41.108  0.00  0.00    -0.448 OA
ATOM     33  C   UNL     1      44.878  75.811  42.314  0.00  0.00    +0.173 C 
ATOM     34  O   UNL     1      47.776  80.742  42.528  0.00  0.00    -0.218 OA
ATOM     35  C   UNL     1      50.565  78.533  39.894  0.00  0.00    +0.031 C 
ENDROOT
BRANCH  33  36
ATOM     36  C   UNL     1      44.321  74.422  42.386  0.00  0.00    +0.041 C 
ATOM     37  C   UNL     1      45.146  73.487  41.516  0.00  0.00    +0.004 C 
ATOM     38  C   UNL     1      44.471  73.906  43.816  0.00  0.00    +0.004 C 
ENDBRANCH  33  36
TORSDOF 1
