REMARK  Name = Probucol
REMARK  8 active torsions:
REMARK  status: ('A' for Active; 'I' for Inactive)
REMARK    1  A    between atoms: C_2  and  C_5
REMARK    2  A    between atoms: C_7  and  S_16
REMARK    3  A    between atoms: C_9  and  C_12
REMARK    4  A    between atoms: S_16  and  C_17
REMARK    5  A    between atoms: C_17  and  S_20
REMARK    6  A    between atoms: S_20  and  C_21
REMARK    7  A    between atoms: C_23  and  C_32
REMARK    8  A    between atoms: C_25  and  C_27
REMARK                            x       y       z     vdW  Elec       q    Type
REMARK                         _______ _______ _______ _____ _____    ______ ____
ROOT
ATOM      1  C   UNL     1      45.921  80.792  39.412  0.00  0.00    +0.086 C 
ATOM      2  C   UNL     1      46.014  79.915  38.201  0.00  0.00    +0.022 C 
ATOM      3  C   UNL     1      46.414  82.198  39.148  0.00  0.00    +0.022 C 
ENDROOT
BRANCH   1   4
ATOM      4  S   UNL     1      46.940  80.090  40.737  0.00  0.00    -0.105 S 
BRANCH   4   7
ATOM      5  C   UNL     1      48.469  83.341  42.612  0.00  0.00    +0.016 A 
ATOM      6  C   UNL     1      47.640  82.373  42.090  0.00  0.00    +0.005 A 
ATOM      7  C   UNL     1      48.109  81.282  41.365  0.00  0.00    +0.026 A 
ATOM      8  C   UNL     1      49.467  81.195  41.178  0.00  0.00    +0.005 A 
ATOM      9  C   UNL     1      50.354  82.127  41.672  0.00  0.00    +0.016 A 
ATOM     10  C   UNL     1      49.822  83.180  42.380  0.00  0.00    +0.188 A 
ATOM     11  O   UNL     1      50.672  84.136  42.892  0.00  0.00    -0.287 OA
BRANCH   5  13
ATOM     12  C   UNL     1      46.371  84.271  43.343  0.00  0.00    +0.004 C 
ATOM     13  C   UNL     1      47.889  84.449  43.362  0.00  0.00    +0.022 C 
ATOM     14  C   UNL     1      48.311  84.392  44.793  0.00  0.00    +0.004 C 
ATOM     15  C   UNL     1      48.182  85.801  42.793  0.00  0.00    +0.004 C 
ENDBRANCH   5  13
BRANCH   9  16
ATOM     16  C   UNL     1      51.804  81.961  41.429  0.00  0.00    +0.022 C 
ATOM     17  C   UNL     1      52.528  81.827  42.749  0.00  0.00    +0.004 C 
ATOM     18  C   UNL     1      52.122  80.779  40.551  0.00  0.00    +0.004 C 
ATOM     19  C   UNL     1      52.303  83.264  40.812  0.00  0.00    +0.004 C 
ENDBRANCH   9  16
ENDBRANCH   4   7
ENDBRANCH   1   4
BRANCH   1  20
ATOM     20  S   UNL     1      44.186  80.823  39.945  0.00  0.00    -0.105 S 
BRANCH  20  21
ATOM     21  C   UNL     1      43.473  79.199  39.971  0.00  0.00    +0.026 A 
ATOM     22  C   UNL     1      42.456  78.809  39.125  0.00  0.00    +0.005 A 
ATOM     23  C   UNL     1      41.913  77.527  39.166  0.00  0.00    +0.016 A 
ATOM     24  C   UNL     1      42.444  76.676  40.090  0.00  0.00    +0.188 A 
ATOM     25  C   UNL     1      43.450  76.997  40.955  0.00  0.00    +0.016 A 
ATOM     26  C   UNL     1      43.963  78.274  40.887  0.00  0.00    +0.005 A 
ATOM     27  O   UNL     1      41.927  75.390  40.158  0.00  0.00    -0.287 OA
BRANCH  25  28
ATOM     28  C   UNL     1      43.989  76.051  41.930  0.00  0.00    +0.022 C 
ATOM     29  C   UNL     1      44.933  75.037  41.350  0.00  0.00    +0.004 C 
ATOM     30  C   UNL     1      44.728  76.863  42.993  0.00  0.00    +0.004 C 
ATOM     31  C   UNL     1      42.861  75.323  42.647  0.00  0.00    +0.004 C 
ENDBRANCH  25  28
BRANCH  23  32
ATOM     32  C   UNL     1      40.836  77.214  38.226  0.00  0.00    +0.022 C 
ATOM     33  C   UNL     1      39.620  76.616  38.889  0.00  0.00    +0.004 C 
ATOM     34  C   UNL     1      41.347  76.203  37.222  0.00  0.00    +0.004 C 
ATOM     35  C   UNL     1      40.367  78.430  37.454  0.00  0.00    +0.004 C 
ENDBRANCH  23  32
ENDBRANCH  20  21
ENDBRANCH   1  20
TORSDOF 8
