REMARK  Name = Probenecid
REMARK  7 active torsions:
REMARK  status: ('A' for Active; 'I' for Inactive)
REMARK    1  A    between atoms: C_2  and  C_3
REMARK    2  A    between atoms: C_3  and  N_4
REMARK    3  A    between atoms: N_4  and  C_5
REMARK    4  A    between atoms: N_4  and  S_8
REMARK    5  A    between atoms: C_5  and  C_6
REMARK    6  A    between atoms: S_8  and  C_11
REMARK    7  A    between atoms: C_14  and  C_17
REMARK                            x       y       z     vdW  Elec       q    Type
REMARK                         _______ _______ _______ _____ _____    ______ ____
ROOT
ATOM      1  S   UNL     1      49.746  81.539  42.320  0.00  0.00    +0.063 S 
ATOM      2  O   UNL     1      50.827  80.642  41.799  0.00  0.00    -0.153 OA
ATOM      3  O   UNL     1      49.463  81.057  43.728  0.00  0.00    -0.153 OA
ENDROOT
BRANCH   1   4
ATOM      4  C   UNL     1      48.267  81.328  41.365  0.00  0.00    +0.122 A 
ATOM      5  C   UNL     1      48.063  82.055  40.212  0.00  0.00    +0.020 A 
ATOM      6  C   UNL     1      46.905  81.887  39.469  0.00  0.00    +0.008 A 
ATOM      7  C   UNL     1      45.916  81.000  39.839  0.00  0.00    +0.080 A 
ATOM      8  C   UNL     1      46.130  80.277  40.995  0.00  0.00    +0.008 A 
ATOM      9  C   UNL     1      47.281  80.439  41.740  0.00  0.00    +0.020 A 
BRANCH   7  10
ATOM     10  C   UNL     1      44.698  80.829  39.050  0.00  0.00    +0.388 C 
ATOM     11  O   UNL     1      43.889  79.892  39.251  0.00  0.00    -0.241 OA
ATOM     12  O   UNL     1      44.408  81.726  38.036  0.00  0.00    -0.241 OA
ENDBRANCH   7  10
ENDBRANCH   1   4
BRANCH   1  13
ATOM     13  N   UNL     1      50.219  83.144  42.410  0.00  0.00    -0.156 NA
BRANCH  13  14
ATOM     14  C   UNL     1      51.557  83.436  42.527  0.00  0.00    +0.096 C 
BRANCH  14  16
ATOM     15  C   UNL     1      53.912  83.603  41.614  0.00  0.00    +0.002 C 
ATOM     16  C   UNL     1      52.430  83.579  41.345  0.00  0.00    +0.019 C 
ENDBRANCH  14  16
ENDBRANCH  13  14
BRANCH  13  17
ATOM     17  C   UNL     1      49.198  84.075  42.328  0.00  0.00    +0.096 C 
BRANCH  17  18
ATOM     18  C   UNL     1      48.551  84.466  43.644  0.00  0.00    +0.019 C 
ATOM     19  C   UNL     1      47.482  85.499  43.490  0.00  0.00    +0.002 C 
ENDBRANCH  17  18
ENDBRANCH  13  17
ENDBRANCH   1  13
TORSDOF 7
