REMARK  Name = Procaterol
REMARK  5 active torsions:
REMARK  status: ('A' for Active; 'I' for Inactive)
REMARK    1  A    between atoms: C_2  and  C_3
REMARK    2  A    between atoms: C_3  and  C_4
REMARK    3  A    between atoms: C_3  and  N_18
REMARK    4  A    between atoms: C_4  and  C_5
REMARK    5  A    between atoms: N_18  and  C_19
REMARK                            x       y       z     vdW  Elec       q    Type
REMARK                         _______ _______ _______ _____ _____    ______ ____
ROOT
ATOM      1  C   UNL     1      47.673  81.618  40.992  0.00  0.00    +0.011 A 
ATOM      2  C   UNL     1      46.714  80.625  40.813  0.00  0.00    +0.020 A 
ATOM      3  C   UNL     1      46.652  79.515  41.611  0.00  0.00    +0.006 A 
ATOM      4  C   UNL     1      45.685  78.571  41.382  0.00  0.00    +0.063 A 
ATOM      5  C   UNL     1      44.748  78.668  40.375  0.00  0.00    +0.279 A 
ATOM      6  O   UNL     1      43.869  77.806  40.170  0.00  0.00    -0.265 OA
ATOM      7  N   UNL     1      44.822  79.760  39.602  0.00  0.00    -0.205 NA
ATOM      8  C   UNL     1      45.760  80.708  39.800  0.00  0.00    +0.123 A 
ATOM      9  C   UNL     1      45.750  81.792  38.946  0.00  0.00    +0.213 A 
ATOM     10  C   UNL     1      46.673  82.781  39.093  0.00  0.00    +0.043 A 
ATOM     11  C   UNL     1      47.619  82.679  40.113  0.00  0.00    +0.002 A 
ATOM     12  O   UNL     1      44.795  81.880  37.929  0.00  0.00    -0.285 OA
ENDROOT
BRANCH   1  13
ATOM     13  C   UNL     1      48.686  81.556  42.062  0.00  0.00    +0.190 C 
ATOM     14  O   UNL     1      49.995  81.386  41.539  0.00  0.00    -0.217 OA
BRANCH  13  15
ATOM     15  C   UNL     1      48.660  82.792  42.952  0.00  0.00    +0.107 C 
BRANCH  15  17
ATOM     16  C   UNL     1      47.391  84.982  42.990  0.00  0.00    +0.002 C 
ATOM     17  C   UNL     1      48.239  84.032  42.200  0.00  0.00    +0.020 C 
ENDBRANCH  15  17
BRANCH  15  18
ATOM     18  N   UNL     1      49.847  82.948  43.690  0.00  0.00    -0.218 NA
BRANCH  18  19
ATOM     19  C   UNL     1      51.087  82.526  43.166  0.00  0.00    +0.073 C 
ATOM     20  C   UNL     1      51.880  83.733  42.654  0.00  0.00    +0.019 C 
ATOM     21  C   UNL     1      51.156  81.425  42.197  0.00  0.00    +0.019 C 
ENDBRANCH  18  19
ENDBRANCH  15  18
ENDBRANCH  13  15
ENDBRANCH   1  13
TORSDOF 5
