REMARK  Name = Procarbazine
REMARK  5 active torsions:
REMARK  status: ('A' for Active; 'I' for Inactive)
REMARK    1  A    between atoms: C_2  and  N_4
REMARK    2  A    between atoms: C_5  and  C_7
REMARK    3  A    between atoms: C_10  and  C_13
REMARK    4  A    between atoms: C_13  and  N_14
REMARK    5  A    between atoms: N_14  and  N_15
REMARK                            x       y       z     vdW  Elec       q    Type
REMARK                         _______ _______ _______ _____ _____    ______ ____
ROOT
ATOM      1  C   UNL     1      46.948  81.149  41.270  0.00  0.00    +0.055 A 
ATOM      2  C   UNL     1      46.506  79.870  41.581  0.00  0.00    +0.004 A 
ATOM      3  C   UNL     1      45.624  79.230  40.738  0.00  0.00    -0.003 A 
ATOM      4  C   UNL     1      45.156  79.813  39.586  0.00  0.00    -0.003 A 
ATOM      5  C   UNL     1      45.612  81.081  39.304  0.00  0.00    -0.003 A 
ATOM      6  C   UNL     1      46.502  81.751  40.136  0.00  0.00    +0.004 A 
ENDROOT
BRANCH   1   8
ATOM      7  N   UNL     1      48.200  83.150  42.023  0.00  0.00    -0.203 NA
ATOM      8  C   UNL     1      47.883  81.796  42.186  0.00  0.00    +0.265 C 
ATOM      9  O   UNL     1      48.394  81.096  43.127  0.00  0.00    -0.268 OA
BRANCH   7  11
ATOM     10  C   UNL     1      50.510  83.956  42.043  0.00  0.00    +0.023 C 
ATOM     11  C   UNL     1      49.257  83.728  42.866  0.00  0.00    +0.096 C 
ATOM     12  C   UNL     1      48.749  85.015  43.466  0.00  0.00    +0.023 C 
ENDBRANCH   7  11
ENDBRANCH   1   8
BRANCH   4  13
ATOM     13  C   UNL     1      44.213  79.173  38.652  0.00  0.00    +0.136 C 
BRANCH  13  14
ATOM     14  N   UNL     1      42.984  78.780  39.276  0.00  0.00    -0.126 NA
BRANCH  14  15
ATOM     15  N   UNL     1      42.379  77.688  38.694  0.00  0.00    -0.129 NA
ATOM     16  C   UNL     1      41.273  78.034  37.831  0.00  0.00    +0.130 C 
ENDBRANCH  14  15
ENDBRANCH  13  14
ENDBRANCH   4  13
TORSDOF 5
