REMARK  Name = Prochlorperazine
REMARK  4 active torsions:
REMARK  status: ('A' for Active; 'I' for Inactive)
REMARK    1  A    between atoms: N_5  and  C_8
REMARK    2  A    between atoms: C_8  and  C_9
REMARK    3  A    between atoms: C_9  and  C_10
REMARK    4  A    between atoms: C_10  and  N_11
REMARK                            x       y       z     vdW  Elec       q    Type
REMARK                         _______ _______ _______ _____ _____    ______ ____
ROOT
ATOM      1  N   UNL     1      44.416  78.415  40.101  0.00  0.00    -0.286 N 
ATOM      2  C   UNL     1      44.184  77.386  41.045  0.00  0.00    +0.058 A 
ATOM      3  C   UNL     1      43.303  76.363  40.751  0.00  0.00    +0.015 A 
ATOM      4  C   UNL     1      43.030  75.315  41.646  0.00  0.00    +0.001 A 
ATOM      5  C   UNL     1      43.645  75.276  42.868  0.00  0.00    +0.001 A 
ATOM      6  C   UNL     1      44.520  76.285  43.169  0.00  0.00    +0.008 A 
ATOM      7  C   UNL     1      44.773  77.290  42.293  0.00  0.00    +0.043 A 
ATOM      8  S   UNL     1      45.931  78.535  42.775  0.00  0.00    -0.084 S 
ATOM      9  C   UNL     1      46.044  79.709  41.447  0.00  0.00    +0.043 A 
ATOM     10  C   UNL     1      45.306  79.516  40.309  0.00  0.00    +0.058 A 
ATOM     11  C   UNL     1      45.446  80.488  39.313  0.00  0.00    +0.027 A 
ATOM     12  C   UNL     1      46.291  81.591  39.477  0.00  0.00    +0.059 A 
ATOM     13  C   UNL     1      47.001  81.714  40.651  0.00  0.00    +0.012 A 
ATOM     14  C   UNL     1      46.887  80.777  41.651  0.00  0.00    +0.009 A 
ATOM     15 CL   UNL     1      46.402  82.758  38.186  0.00  0.00    -0.082 Cl
ENDROOT
BRANCH   1  16
ATOM     16  C   UNL     1      43.697  78.381  38.840  0.00  0.00    +0.097 C 
BRANCH  16  17
ATOM     17  C   UNL     1      42.213  78.431  38.959  0.00  0.00    +0.039 C 
BRANCH  17  18
ATOM     18  C   UNL     1      41.484  78.113  37.656  0.00  0.00    +0.074 C 
BRANCH  18  23
ATOM     19  C   UNL     1      37.249  74.702  36.811  0.00  0.00    +0.090 C 
ATOM     20  N   UNL     1      38.280  75.539  37.340  0.00  0.00    -0.269 NA
ATOM     21  C   UNL     1      39.594  75.212  36.808  0.00  0.00    +0.090 C 
ATOM     22  C   UNL     1      40.611  75.877  37.705  0.00  0.00    +0.090 C 
ATOM     23  N   UNL     1      40.376  77.241  37.992  0.00  0.00    -0.270 NA
ATOM     24  C   UNL     1      39.090  77.776  37.795  0.00  0.00    +0.090 C 
ATOM     25  C   UNL     1      38.098  76.953  37.054  0.00  0.00    +0.090 C 
ENDBRANCH  18  23
ENDBRANCH  17  18
ENDBRANCH  16  17
ENDBRANCH   1  16
TORSDOF 4
