REMARK  Name = Procaine
REMARK  7 active torsions:
REMARK  status: ('A' for Active; 'I' for Inactive)
REMARK    1  A    between atoms: C_2  and  N_3
REMARK    2  A    between atoms: N_3  and  C_4
REMARK    3  A    between atoms: N_3  and  C_6
REMARK    4  A    between atoms: C_6  and  C_7
REMARK    5  A    between atoms: C_7  and  O_8
REMARK    6  A    between atoms: O_8  and  C_9
REMARK    7  A    between atoms: C_9  and  C_11
REMARK                            x       y       z     vdW  Elec       q    Type
REMARK                         _______ _______ _______ _____ _____    ______ ____
ROOT
ATOM      1  C   UNL     1      44.849  80.910  39.218  0.00  0.00    +0.341 C 
ATOM      2  O   UNL     1      44.400  81.667  38.321  0.00  0.00    -0.245 OA
ENDROOT
BRANCH   1   3
ATOM      3  C   UNL     1      46.051  81.335  39.915  0.00  0.00    +0.076 A 
ATOM      4  C   UNL     1      46.674  82.488  39.516  0.00  0.00    +0.008 A 
ATOM      5  C   UNL     1      47.816  82.969  40.117  0.00  0.00    +0.018 A 
ATOM      6  C   UNL     1      48.367  82.248  41.184  0.00  0.00    +0.089 A 
ATOM      7  C   UNL     1      47.765  81.090  41.604  0.00  0.00    +0.018 A 
ATOM      8  C   UNL     1      46.611  80.642  40.966  0.00  0.00    +0.008 A 
ATOM      9  N   UNL     1      49.540  82.689  41.843  0.00  0.00    -0.128 NA
ENDBRANCH   1   3
BRANCH   1  10
ATOM     10  O   UNL     1      44.195  79.742  39.487  0.00  0.00    -0.444 OA
BRANCH  10  11
ATOM     11  C   UNL     1      43.023  79.306  38.815  0.00  0.00    +0.226 C 
BRANCH  11  12
ATOM     12  C   UNL     1      42.612  77.930  39.205  0.00  0.00    +0.120 C 
BRANCH  12  13
ATOM     13  N   UNL     1      41.448  77.531  38.496  0.00  0.00    -0.270 NA
BRANCH  13  15
ATOM     14  C   UNL     1      40.075  77.615  36.447  0.00  0.00    +0.019 C 
ATOM     15  C   UNL     1      41.234  78.174  37.263  0.00  0.00    +0.072 C 
ENDBRANCH  13  15
BRANCH  13  16
ATOM     16  C   UNL     1      41.202  76.130  38.551  0.00  0.00    +0.072 C 
ATOM     17  C   UNL     1      41.715  75.420  39.747  0.00  0.00    +0.019 C 
ENDBRANCH  13  16
ENDBRANCH  12  13
ENDBRANCH  11  12
ENDBRANCH  10  11
ENDBRANCH   1  10
TORSDOF 7
