REMARK  Name = Progesterone
REMARK  1 active torsions:
REMARK  status: ('A' for Active; 'I' for Inactive)
REMARK    1  A    between atoms: C_2  and  C_4
REMARK                            x       y       z     vdW  Elec       q    Type
REMARK                         _______ _______ _______ _____ _____    ______ ____
ROOT
ATOM      1  C   UNL     1      50.107  82.749  43.670  0.00  0.00    +0.058 C 
ATOM      2  C   UNL     1      51.037  82.222  42.584  0.00  0.00    +0.007 C 
ATOM      3  C   UNL     1      50.318  82.506  41.272  0.00  0.00    +0.000 C 
ATOM      4  C   UNL     1      48.948  82.929  41.675  0.00  0.00    +0.000 C 
ATOM      5  C   UNL     1      48.747  82.445  43.078  0.00  0.00    +0.007 C 
ATOM      6  C   UNL     1      48.392  80.997  43.181  0.00  0.00    +0.000 C 
ATOM      7  C   UNL     1      48.384  80.229  41.929  0.00  0.00    +0.000 C 
ATOM      8  C   UNL     1      47.924  80.936  40.700  0.00  0.00    +0.003 C 
ATOM      9  C   UNL     1      47.843  82.413  40.805  0.00  0.00    +0.001 C 
ATOM     10  C   UNL     1      47.945  82.981  39.400  0.00  0.00    +0.004 C 
ATOM     11  C   UNL     1      47.336  82.045  38.380  0.00  0.00    +0.022 C 
ATOM     12  C   UNL     1      46.284  81.193  38.949  0.00  0.00    -0.042 C 
ATOM     13  C   UNL     1      45.060  81.055  38.465  0.00  0.00    +0.029 C 
ATOM     14  C   UNL     1      44.137  80.158  39.166  0.00  0.00    +0.173 C 
ATOM     15  O   UNL     1      43.198  79.657  38.504  0.00  0.00    -0.291 OA
ATOM     16  C   UNL     1      44.287  79.840  40.605  0.00  0.00    +0.069 C 
ATOM     17  C   UNL     1      45.455  80.681  41.144  0.00  0.00    +0.012 C 
ATOM     18  C   UNL     1      46.606  80.413  40.175  0.00  0.00    +0.016 C 
ATOM     19  C   UNL     1      46.698  78.931  39.879  0.00  0.00    +0.004 C 
ATOM     20  C   UNL     1      47.723  83.312  43.757  0.00  0.00    +0.000 C 
ENDROOT
BRANCH   1  22
ATOM     21  C   UNL     1      50.986  84.639  45.142  0.00  0.00    +0.072 C 
ATOM     22  C   UNL     1      50.340  84.194  43.880  0.00  0.00    +0.151 C 
ATOM     23  O   UNL     1      50.028  85.035  43.069  0.00  0.00    -0.296 OA
ENDBRANCH   1  22
TORSDOF 1
