REMARK  Name = Proglumetacin
REMARK  23 active torsions:
REMARK  status: ('A' for Active; 'I' for Inactive)
REMARK    1  A    between atoms: C_2  and  C_3
REMARK    2  A    between atoms: C_3  and  N_4
REMARK    3  A    between atoms: N_4  and  C_5
REMARK    4  A    between atoms: C_5  and  C_6
REMARK    5  A    between atoms: C_8  and  C_10
REMARK    6  A    between atoms: C_10  and  C_11
REMARK    7  A    between atoms: C_10  and  N_52
REMARK    8  A    between atoms: C_11  and  C_12
REMARK    9  A    between atoms: C_12  and  C_13
REMARK   10  A    between atoms: C_13  and  O_15
REMARK   11  A    between atoms: O_15  and  C_16
REMARK   12  A    between atoms: C_16  and  C_17
REMARK   13  A    between atoms: C_17  and  C_18
REMARK   14  A    between atoms: C_18  and  N_19
REMARK   15  A    between atoms: N_22  and  C_25
REMARK   16  A    between atoms: C_25  and  C_26
REMARK   17  A    between atoms: C_26  and  O_27
REMARK   18  A    between atoms: O_27  and  C_28
REMARK   19  A    between atoms: C_28  and  C_30
REMARK   20  A    between atoms: C_30  and  C_31
REMARK   21  A    between atoms: C_37  and  O_40
REMARK   22  A    between atoms: C_42  and  C_44
REMARK   23  A    between atoms: C_53  and  C_55
REMARK                            x       y       z     vdW  Elec       q    Type
REMARK                         _______ _______ _______ _____ _____    ______ ____
ROOT
ATOM      1  N   UNL     1      38.754  73.497  35.664  0.00  0.00    -0.270 NA
ATOM      2  C   UNL     1      38.667  74.873  35.950  0.00  0.00    +0.090 C 
ATOM      3  C   UNL     1      39.782  75.287  36.880  0.00  0.00    +0.090 C 
ATOM      4  N   UNL     1      39.875  74.483  38.041  0.00  0.00    -0.267 NA
ATOM      5  C   UNL     1      39.408  73.163  37.926  0.00  0.00    +0.090 C 
ATOM      6  C   UNL     1      39.637  72.705  36.464  0.00  0.00    +0.090 C 
ENDROOT
BRANCH   1   7
ATOM      7  C   UNL     1      37.516  72.853  35.347  0.00  0.00    +0.076 C 
BRANCH   7   8
ATOM      8  C   UNL     1      37.496  72.093  34.056  0.00  0.00    +0.065 C 
BRANCH   8   9
ATOM      9  C   UNL     1      36.222  71.376  33.757  0.00  0.00    +0.210 C 
BRANCH   9  10
ATOM     10  O   UNL     1      35.579  72.007  32.671  0.00  0.00    -0.448 OA
BRANCH  10  11
ATOM     11  C   UNL     1      35.374  71.397  31.448  0.00  0.00    +0.317 C 
ATOM     12  O   UNL     1      36.090  71.699  30.460  0.00  0.00    -0.250 OA
BRANCH  11  13
ATOM     13  C   UNL     1      34.294  70.353  31.250  0.00  0.00    +0.112 C 
BRANCH  13  14
ATOM     14  C   UNL     1      35.026  69.081  30.935  0.00  0.00    +0.043 C 
BRANCH  14  15
ATOM     15  C   UNL     1      34.178  67.882  30.602  0.00  0.00    +0.172 C 
BRANCH  15  17
ATOM     16  N   UNL     1      34.374  66.566  28.368  0.00  0.00    -0.278 N 
ATOM     17  C   UNL     1      34.811  66.975  29.648  0.00  0.00    +0.246 C 
ATOM     18  O   UNL     1      35.946  66.422  29.986  0.00  0.00    -0.273 OA
BRANCH  16  19
ATOM     19  C   UNL     1      35.077  65.641  27.542  0.00  0.00    +0.093 C 
BRANCH  19  20
ATOM     20  C   UNL     1      36.564  65.699  27.545  0.00  0.00    +0.022 C 
ATOM     21  C   UNL     1      37.130  64.484  26.788  0.00  0.00    +0.002 C 
ENDBRANCH  19  20
ENDBRANCH  16  19
BRANCH  16  22
ATOM     22  C   UNL     1      33.125  67.161  27.800  0.00  0.00    +0.093 C 
BRANCH  22  24
ATOM     23  C   UNL     1      30.703  66.449  27.643  0.00  0.00    +0.002 C 
ATOM     24  C   UNL     1      31.908  66.676  28.497  0.00  0.00    +0.022 C 
ENDBRANCH  22  24
ENDBRANCH  16  22
ENDBRANCH  15  17
BRANCH  15  25
ATOM     25  N   UNL     1      34.028  67.186  31.884  0.00  0.00    -0.194 NA
ATOM     26  C   UNL     1      33.276  67.650  32.947  0.00  0.00    +0.265 C 
ATOM     27  O   UNL     1      32.759  68.813  32.986  0.00  0.00    -0.268 OA
BRANCH  26  28
ATOM     28  C   UNL     1      32.989  66.852  34.155  0.00  0.00    +0.055 A 
ATOM     29  C   UNL     1      33.608  65.637  34.295  0.00  0.00    +0.005 A 
ATOM     30  C   UNL     1      33.329  64.898  35.437  0.00  0.00    +0.000 A 
ATOM     31  C   UNL     1      32.481  65.312  36.417  0.00  0.00    +0.000 A 
ATOM     32  C   UNL     1      31.866  66.546  36.254  0.00  0.00    +0.000 A 
ATOM     33  C   UNL     1      32.123  67.303  35.130  0.00  0.00    +0.005 A 
ENDBRANCH  26  28
ENDBRANCH  15  25
ENDBRANCH  14  15
ENDBRANCH  13  14
ENDBRANCH  11  13
ENDBRANCH  10  11
ENDBRANCH   9  10
ENDBRANCH   8   9
ENDBRANCH   7   8
ENDBRANCH   1   7
BRANCH   4  34
ATOM     34  C   UNL     1      40.700  74.893  39.091  0.00  0.00    +0.120 C 
BRANCH  34  35
ATOM     35  C   UNL     1      40.592  76.385  39.279  0.00  0.00    +0.226 C 
BRANCH  35  36
ATOM     36  O   UNL     1      41.216  76.767  40.468  0.00  0.00    -0.447 OA
BRANCH  36  37
ATOM     37  C   UNL     1      42.459  77.352  40.456  0.00  0.00    +0.322 C 
ATOM     38  O   UNL     1      43.162  77.324  41.496  0.00  0.00    -0.250 OA
BRANCH  37  39
ATOM     39  C   UNL     1      43.072  78.040  39.285  0.00  0.00    +0.137 C 
BRANCH  39  40
ATOM     40  C   UNL     1      44.167  78.893  39.784  0.00  0.00    +0.003 A 
ATOM     41  C   UNL     1      44.472  80.154  39.251  0.00  0.00    +0.041 A 
ATOM     42  N   UNL     1      45.504  80.609  39.966  0.00  0.00    -0.279 N 
ATOM     43  C   UNL     1      45.855  79.680  40.919  0.00  0.00    +0.066 A 
ATOM     44  C   UNL     1      45.019  78.595  40.816  0.00  0.00    +0.017 A 
ATOM     45  C   UNL     1      45.144  77.494  41.667  0.00  0.00    +0.038 A 
ATOM     46  C   UNL     1      46.102  77.439  42.648  0.00  0.00    +0.139 A 
ATOM     47  C   UNL     1      46.943  78.521  42.759  0.00  0.00    +0.038 A 
ATOM     48  C   UNL     1      46.816  79.623  41.905  0.00  0.00    +0.021 A 
ATOM     49  C   UNL     1      46.117  81.862  39.866  0.00  0.00    +0.264 C 
ATOM     50  O   UNL     1      45.776  82.597  38.855  0.00  0.00    -0.267 OA
ATOM     51  C   UNL     1      43.769  80.747  38.060  0.00  0.00    +0.050 C 
BRANCH  49  52
ATOM     52  C   UNL     1      47.088  82.497  40.711  0.00  0.00    +0.057 A 
ATOM     53  C   UNL     1      48.430  82.597  40.352  0.00  0.00    +0.006 A 
ATOM     54  C   UNL     1      49.377  83.117  41.185  0.00  0.00    +0.012 A 
ATOM     55  C   UNL     1      49.001  83.563  42.431  0.00  0.00    +0.058 A 
ATOM     56  C   UNL     1      47.688  83.485  42.832  0.00  0.00    +0.012 A 
ATOM     57  C   UNL     1      46.752  82.950  41.959  0.00  0.00    +0.006 A 
ATOM     58 CL   UNL     1      50.245  84.229  43.484  0.00  0.00    -0.082 Cl
ENDBRANCH  49  52
BRANCH  46  59
ATOM     59  O   UNL     1      46.244  76.356  43.506  0.00  0.00    -0.471 OA
ATOM     60  C   UNL     1      45.096  75.870  44.170  0.00  0.00    +0.252 C 
ENDBRANCH  46  59
ENDBRANCH  39  40
ENDBRANCH  37  39
ENDBRANCH  36  37
ENDBRANCH  35  36
ENDBRANCH  34  35
ENDBRANCH   4  34
TORSDOF 23
