REMARK  Name = Progabide
REMARK  6 active torsions:
REMARK  status: ('A' for Active; 'I' for Inactive)
REMARK    1  A    between atoms: C_6  and  C_7
REMARK    2  A    between atoms: C_7  and  C_15
REMARK    3  A    between atoms: N_8  and  C_9
REMARK    4  A    between atoms: C_9  and  C_10
REMARK    5  A    between atoms: C_10  and  C_11
REMARK    6  A    between atoms: C_11  and  C_12
REMARK                            x       y       z     vdW  Elec       q    Type
REMARK                         _______ _______ _______ _____ _____    ______ ____
ROOT
ATOM      1  C   UNL     1      47.806  81.992  41.763  0.00  0.00    +0.079 C 
ATOM      2  N   UNL     1      47.084  81.278  41.352  0.00  0.00    -0.270 NA
ENDROOT
BRANCH   1   3
ATOM      3  C   UNL     1      48.777  82.939  42.317  0.00  0.00    +0.058 A 
ATOM      4  C   UNL     1      50.144  82.761  42.295  0.00  0.00    +0.197 A 
ATOM      5  C   UNL     1      50.979  83.603  43.049  0.00  0.00    +0.044 A 
ATOM      6  C   UNL     1      50.452  84.602  43.814  0.00  0.00    +0.033 A 
ATOM      7  C   UNL     1      49.092  84.811  43.868  0.00  0.00    +0.140 A 
ATOM      8  C   UNL     1      48.313  83.987  43.130  0.00  0.00    +0.034 A 
ATOM      9  F   UNL     1      48.532  85.804  44.627  0.00  0.00    -0.204 F 
ATOM     10  O   UNL     1      50.751  81.749  41.553  0.00  0.00    -0.287 OA
ENDBRANCH   1   3
BRANCH   1  16
ATOM     11  C   UNL     1      49.602  80.443  40.625  0.00  0.00    +0.002 A 
ATOM     12  C   UNL     1      50.622  79.430  40.635  0.00  0.00    +0.011 A 
ATOM     13  C   UNL     1      50.867  78.739  41.785  0.00  0.00    +0.058 A 
ATOM     14  C   UNL     1      50.136  79.019  42.916  0.00  0.00    +0.011 A 
ATOM     15  C   UNL     1      49.119  80.038  42.882  0.00  0.00    +0.002 A 
ATOM     16  C   UNL     1      48.960  80.648  41.726  0.00  0.00    +0.017 A 
ATOM     17 CL   UNL     1      52.113  77.486  41.853  0.00  0.00    -0.082 Cl
ENDBRANCH   1  16
BRANCH   2  18
ATOM     18  C   UNL     1      46.281  81.057  40.210  0.00  0.00    +0.126 C 
BRANCH  18  19
ATOM     19  C   UNL     1      45.419  79.849  40.189  0.00  0.00    +0.036 C 
BRANCH  19  20
ATOM     20  C   UNL     1      44.006  80.111  39.780  0.00  0.00    +0.091 C 
BRANCH  20  21
ATOM     21  C   UNL     1      43.967  80.311  38.286  0.00  0.00    +0.261 C 
ATOM     22  O   UNL     1      44.385  81.377  37.824  0.00  0.00    -0.272 OA
ATOM     23  N   UNL     1      43.452  79.254  37.502  0.00  0.00    -0.088 NA
ENDBRANCH  20  21
ENDBRANCH  19  20
ENDBRANCH  18  19
ENDBRANCH   2  18
TORSDOF 6
