REMARK  Name = Proguanil
REMARK  3 active torsions:
REMARK  status: ('A' for Active; 'I' for Inactive)
REMARK    1  A    between atoms: C_2  and  N_4
REMARK    2  A    between atoms: C_5  and  N_7
REMARK    3  A    between atoms: N_10  and  C_11
REMARK                            x       y       z     vdW  Elec       q    Type
REMARK                         _______ _______ _______ _____ _____    ______ ____
ROOT
ATOM      1  N   UNL     1      45.299  81.688  38.370  0.00  0.00    -0.171 NA
ATOM      2  C   UNL     1      46.253  82.230  39.045  0.00  0.00    +0.273 C 
ATOM      3  N   UNL     1      47.004  83.350  38.556  0.00  0.00    -0.105 NA
ATOM      4  N   UNL     1      46.558  81.678  40.316  0.00  0.00    -0.209 NA
ENDROOT
BRANCH   4   5
ATOM      5  C   UNL     1      47.547  82.231  41.168  0.00  0.00    +0.085 A 
ATOM      6  C   UNL     1      47.219  83.375  41.872  0.00  0.00    +0.020 A 
ATOM      7  C   UNL     1      48.143  83.926  42.703  0.00  0.00    +0.013 A 
ATOM      8  C   UNL     1      49.397  83.401  42.881  0.00  0.00    +0.058 A 
ATOM      9  C   UNL     1      49.730  82.267  42.187  0.00  0.00    +0.013 A 
ATOM     10  C   UNL     1      48.790  81.689  41.329  0.00  0.00    +0.020 A 
ATOM     11 CL   UNL     1      50.524  84.195  43.985  0.00  0.00    -0.082 Cl
ENDBRANCH   4   5
BRANCH   1  13
ATOM     12  N   UNL     1      45.235  79.956  39.911  0.00  0.00    -0.237 NA
ATOM     13  C   UNL     1      44.716  80.508  38.874  0.00  0.00    +0.269 C 
ATOM     14  N   UNL     1      43.566  79.939  38.239  0.00  0.00    -0.105 NA
BRANCH  12  16
ATOM     15  C   UNL     1      45.776  77.655  39.651  0.00  0.00    +0.026 C 
ATOM     16  C   UNL     1      44.795  78.632  40.276  0.00  0.00    +0.107 C 
ATOM     17  C   UNL     1      44.735  78.499  41.768  0.00  0.00    +0.026 C 
ENDBRANCH  12  16
ENDBRANCH   1  13
TORSDOF 3
