REMARK  Name = Prolixin_decanoate
REMARK  17 active torsions:
REMARK  status: ('A' for Active; 'I' for Inactive)
REMARK    1  A    between atoms: C_2  and  C_3
REMARK    2  A    between atoms: C_3  and  C_4
REMARK    3  A    between atoms: C_4  and  C_5
REMARK    4  A    between atoms: C_5  and  C_6
REMARK    5  A    between atoms: C_6  and  C_7
REMARK    6  A    between atoms: C_7  and  C_8
REMARK    7  A    between atoms: C_8  and  C_9
REMARK    8  A    between atoms: C_9  and  C_10
REMARK    9  A    between atoms: C_10  and  O_12
REMARK   10  A    between atoms: O_12  and  C_13
REMARK   11  A    between atoms: C_13  and  C_14
REMARK   12  A    between atoms: C_14  and  N_15
REMARK   13  A    between atoms: N_18  and  C_21
REMARK   14  A    between atoms: C_21  and  C_22
REMARK   15  A    between atoms: C_22  and  C_23
REMARK   16  A    between atoms: C_23  and  N_24
REMARK   17  A    between atoms: C_35  and  C_38
REMARK                            x       y       z     vdW  Elec       q    Type
REMARK                         _______ _______ _______ _____ _____    ______ ____
ROOT
ATOM      1  C   UNL     1      47.222  80.610  39.921  0.00  0.00    +0.074 C 
ENDROOT
BRANCH   1   5
ATOM      2  N   UNL     1      43.624  79.591  39.102  0.00  0.00    -0.267 NA
ATOM      3  C   UNL     1      44.533  79.231  40.177  0.00  0.00    +0.090 C 
ATOM      4  C   UNL     1      45.031  80.495  40.843  0.00  0.00    +0.090 C 
ATOM      5  N   UNL     1      45.927  81.200  39.924  0.00  0.00    -0.270 NA
ATOM      6  C   UNL     1      45.317  81.386  38.651  0.00  0.00    +0.090 C 
ATOM      7  C   UNL     1      44.105  80.645  38.284  0.00  0.00    +0.090 C 
BRANCH   2   8
ATOM      8  C   UNL     1      43.121  78.440  38.425  0.00  0.00    +0.120 C 
BRANCH   8   9
ATOM      9  C   UNL     1      41.743  78.055  38.896  0.00  0.00    +0.226 C 
BRANCH   9  10
ATOM     10  O   UNL     1      40.824  78.010  37.837  0.00  0.00    -0.447 OA
BRANCH  10  11
ATOM     11  C   UNL     1      40.457  76.902  37.117  0.00  0.00    +0.317 C 
ATOM     12  O   UNL     1      41.262  76.486  36.250  0.00  0.00    -0.250 OA
BRANCH  11  13
ATOM     13  C   UNL     1      39.184  76.196  37.319  0.00  0.00    +0.110 C 
BRANCH  13  14
ATOM     14  C   UNL     1      38.966  74.996  36.466  0.00  0.00    +0.012 C 
BRANCH  14  15
ATOM     15  C   UNL     1      37.669  74.261  36.744  0.00  0.00    +0.001 C 
BRANCH  15  16
ATOM     16  C   UNL     1      37.186  73.588  35.492  0.00  0.00    +0.000 C 
BRANCH  16  17
ATOM     17  C   UNL     1      36.888  72.096  35.713  0.00  0.00    +0.000 C 
BRANCH  17  18
ATOM     18  C   UNL     1      36.564  71.822  37.127  0.00  0.00    +0.000 C 
BRANCH  18  19
ATOM     19  C   UNL     1      35.574  70.734  37.335  0.00  0.00    +0.000 C 
BRANCH  19  21
ATOM     20  C   UNL     1      33.361  69.933  38.304  0.00  0.00    +0.000 C 
ATOM     21  C   UNL     1      34.314  71.038  38.049  0.00  0.00    +0.000 C 
ENDBRANCH  19  21
ENDBRANCH  18  19
ENDBRANCH  17  18
ENDBRANCH  16  17
ENDBRANCH  15  16
ENDBRANCH  14  15
ENDBRANCH  13  14
ENDBRANCH  11  13
ENDBRANCH  10  11
ENDBRANCH   9  10
ENDBRANCH   8   9
ENDBRANCH   2   8
ENDBRANCH   1   5
BRANCH   1  22
ATOM     22  C   UNL     1      48.302  81.642  40.122  0.00  0.00    +0.039 C 
BRANCH  22  23
ATOM     23  C   UNL     1      49.122  81.350  41.363  0.00  0.00    +0.097 C 
BRANCH  23  24
ATOM     24  N   UNL     1      49.402  82.605  42.029  0.00  0.00    -0.286 N 
ATOM     25  C   UNL     1      48.389  83.201  42.826  0.00  0.00    +0.058 A 
ATOM     26  C   UNL     1      47.154  82.571  42.983  0.00  0.00    +0.015 A 
ATOM     27  C   UNL     1      46.119  83.074  43.736  0.00  0.00    +0.001 A 
ATOM     28  C   UNL     1      46.257  84.268  44.396  0.00  0.00    +0.001 A 
ATOM     29  C   UNL     1      47.470  84.901  44.251  0.00  0.00    +0.008 A 
ATOM     30  C   UNL     1      48.499  84.393  43.497  0.00  0.00    +0.043 A 
ATOM     31  S   UNL     1      50.031  85.302  43.403  0.00  0.00    -0.084 S 
ATOM     32  C   UNL     1      51.109  84.360  42.361  0.00  0.00    +0.043 A 
ATOM     33  C   UNL     1      50.704  83.164  41.808  0.00  0.00    +0.058 A 
ATOM     34  C   UNL     1      51.612  82.499  40.995  0.00  0.00    +0.019 A 
ATOM     35  C   UNL     1      52.883  82.994  40.733  0.00  0.00    +0.073 A 
ATOM     36  C   UNL     1      53.230  84.192  41.314  0.00  0.00    +0.004 A 
ATOM     37  C   UNL     1      52.341  84.867  42.123  0.00  0.00    +0.008 A 
BRANCH  35  38
ATOM     38  C   UNL     1      53.838  82.269  39.862  0.00  0.00    +0.419 C 
ATOM     39  F   UNL     1      54.946  83.068  39.635  0.00  0.00    -0.166 F 
ATOM     40  F   UNL     1      53.241  82.058  38.625  0.00  0.00    -0.166 F 
ATOM     41  F   UNL     1      54.203  81.050  40.400  0.00  0.00    -0.166 F 
ENDBRANCH  35  38
ENDBRANCH  23  24
ENDBRANCH  22  23
ENDBRANCH   1  22
TORSDOF 17
