REMARK  Name = Promestriene
REMARK  4 active torsions:
REMARK  status: ('A' for Active; 'I' for Inactive)
REMARK    1  A    between atoms: C_2  and  C_3
REMARK    2  A    between atoms: C_3  and  O_4
REMARK    3  A    between atoms: O_4  and  C_5
REMARK    4  A    between atoms: C_21  and  O_22
REMARK                            x       y       z     vdW  Elec       q    Type
REMARK                         _______ _______ _______ _____ _____    ______ ____
ROOT
ATOM      1  C   UNL     1      43.431  78.437  39.130  0.00  0.00    +0.138 A 
ATOM      2  C   UNL     1      44.039  79.561  38.632  0.00  0.00    +0.032 A 
ATOM      3  C   UNL     1      45.205  80.064  39.200  0.00  0.00    -0.023 A 
ATOM      4  C   UNL     1      45.831  79.499  40.275  0.00  0.00    -0.026 A 
ATOM      5  C   UNL     1      45.217  78.347  40.794  0.00  0.00    -0.001 A 
ATOM      6  C   UNL     1      44.079  77.847  40.248  0.00  0.00    +0.037 A 
ATOM      7  C   UNL     1      47.067  80.004  40.902  0.00  0.00    +0.022 C 
ATOM      8  C   UNL     1      46.887  80.204  42.388  0.00  0.00    +0.004 C 
ATOM      9  C   UNL     1      48.158  80.620  43.041  0.00  0.00    +0.003 C 
ATOM     10  C   UNL     1      49.101  81.417  42.188  0.00  0.00    +0.025 C 
ATOM     11  C   UNL     1      48.455  82.089  41.021  0.00  0.00    +0.003 C 
ATOM     12  C   UNL     1      47.558  81.217  40.204  0.00  0.00    +0.004 C 
ATOM     13  C   UNL     1      46.398  82.095  39.707  0.00  0.00    +0.005 C 
ATOM     14  C   UNL     1      45.792  81.301  38.568  0.00  0.00    +0.026 C 
ATOM     15  C   UNL     1      47.768  83.301  41.611  0.00  0.00    +0.003 C 
ATOM     16  C   UNL     1      48.696  83.691  42.733  0.00  0.00    +0.030 C 
ATOM     17  C   UNL     1      49.677  82.599  42.957  0.00  0.00    +0.115 C 
ATOM     18  C   UNL     1      50.211  80.525  41.673  0.00  0.00    +0.002 C 
ENDROOT
BRANCH  17  19
ATOM     19  O   UNL     1      50.937  82.832  42.493  0.00  0.00    -0.354 OA
ATOM     20  C   UNL     1      51.789  83.435  43.406  0.00  0.00    +0.174 C 
ENDBRANCH  17  19
BRANCH   1  21
ATOM     21  O   UNL     1      42.316  77.881  38.650  0.00  0.00    -0.475 OA
BRANCH  21  22
ATOM     22  C   UNL     1      41.269  78.081  37.851  0.00  0.00    +0.205 C 
BRANCH  22  24
ATOM     23  C   UNL     1      39.786  76.042  37.514  0.00  0.00    +0.004 C 
ATOM     24  C   UNL     1      40.744  77.016  36.959  0.00  0.00    +0.047 C 
ENDBRANCH  22  24
ENDBRANCH  21  22
ENDBRANCH   1  21
TORSDOF 4
