REMARK  Name = Propiverine
REMARK  8 active torsions:
REMARK  status: ('A' for Active; 'I' for Inactive)
REMARK    1  A    between atoms: C_2  and  C_3
REMARK    2  A    between atoms: C_3  and  O_4
REMARK    3  A    between atoms: O_4  and  C_5
REMARK    4  A    between atoms: C_5  and  C_6
REMARK    5  A    between atoms: C_5  and  C_12
REMARK    6  A    between atoms: C_5  and  C_18
REMARK    7  A    between atoms: C_18  and  O_20
REMARK    8  A    between atoms: O_20  and  C_21
REMARK                            x       y       z     vdW  Elec       q    Type
REMARK                         _______ _______ _______ _____ _____    ______ ____
ROOT
ATOM      1  C   UNL     1      48.682  81.960  40.652  0.00  0.00    +0.219 C 
ENDROOT
BRANCH   1   2
ATOM      2  C   UNL     1      48.419  82.673  41.930  0.00  0.00    +0.016 A 
ATOM      3  C   UNL     1      47.951  83.960  41.864  0.00  0.00    -0.001 A 
ATOM      4  C   UNL     1      47.659  84.735  42.991  0.00  0.00    -0.000 A 
ATOM      5  C   UNL     1      47.862  84.149  44.220  0.00  0.00    -0.000 A 
ATOM      6  C   UNL     1      48.333  82.854  44.282  0.00  0.00    -0.000 A 
ATOM      7  C   UNL     1      48.616  82.103  43.163  0.00  0.00    -0.001 A 
ENDBRANCH   1   2
BRANCH   1   8
ATOM      8  C   UNL     1      49.260  80.618  41.007  0.00  0.00    +0.016 A 
ATOM      9  C   UNL     1      49.100  79.509  40.206  0.00  0.00    -0.001 A 
ATOM     10  C   UNL     1      49.645  78.277  40.545  0.00  0.00    -0.000 A 
ATOM     11  C   UNL     1      50.367  78.123  41.700  0.00  0.00    -0.000 A 
ATOM     12  C   UNL     1      50.535  79.225  42.513  0.00  0.00    -0.000 A 
ATOM     13  C   UNL     1      49.988  80.445  42.164  0.00  0.00    -0.001 A 
ENDBRANCH   1   8
BRANCH   1  14
ATOM     14  C   UNL     1      47.358  81.694  40.046  0.00  0.00    +0.349 C 
ATOM     15  O   UNL     1      47.131  82.077  38.887  0.00  0.00    -0.247 OA
BRANCH  14  16
ATOM     16  O   UNL     1      46.396  81.032  40.756  0.00  0.00    -0.450 OA
BRANCH  16  17
ATOM     17  C   UNL     1      45.249  80.503  40.161  0.00  0.00    +0.172 C 
ATOM     18  C   UNL     1      45.266  80.503  38.659  0.00  0.00    +0.061 C 
ATOM     19  C   UNL     1      43.842  80.182  38.206  0.00  0.00    +0.076 C 
ATOM     20  N   UNL     1      43.561  78.840  38.645  0.00  0.00    -0.271 NA
ATOM     21  C   UNL     1      43.518  78.802  40.095  0.00  0.00    +0.076 C 
ATOM     22  C   UNL     1      44.936  79.082  40.608  0.00  0.00    +0.061 C 
ATOM     23  C   UNL     1      42.252  78.385  38.179  0.00  0.00    +0.090 C 
ENDBRANCH  16  17
ENDBRANCH  14  16
ENDBRANCH   1  14
BRANCH   1  24
ATOM     24  O   UNL     1      49.425  82.673  39.768  0.00  0.00    -0.340 OA
BRANCH  24  25
ATOM     25  C   UNL     1      50.656  83.103  40.123  0.00  0.00    +0.144 C 
BRANCH  25  27
ATOM     26  C   UNL     1      52.129  84.988  39.416  0.00  0.00    +0.003 C 
ATOM     27  C   UNL     1      51.209  83.908  38.936  0.00  0.00    +0.032 C 
ENDBRANCH  25  27
ENDBRANCH  24  25
ENDBRANCH   1  24
TORSDOF 8
