REMARK  Name = Propyliodone
REMARK  5 active torsions:
REMARK  status: ('A' for Active; 'I' for Inactive)
REMARK    1  A    between atoms: C_2  and  C_3
REMARK    2  A    between atoms: C_3  and  O_4
REMARK    3  A    between atoms: O_4  and  C_5
REMARK    4  A    between atoms: C_5  and  C_7
REMARK    5  A    between atoms: C_7  and  N_8
REMARK                            x       y       z     vdW  Elec       q    Type
REMARK                         _______ _______ _______ _____ _____    ______ ____
ROOT
ATOM      1  N   UNL     1      45.282  79.649  40.673  0.00  0.00    -0.314 N 
ATOM      2  C   UNL     1      45.340  80.675  39.782  0.00  0.00    +0.085 A 
ATOM      3  C   UNL     1      46.405  81.550  39.783  0.00  0.00    +0.087 A 
ATOM      4  C   UNL     1      47.403  81.340  40.723  0.00  0.00    +0.209 A 
ATOM      5  O   UNL     1      48.379  82.144  40.722  0.00  0.00    -0.286 OA
ATOM      6  C   UNL     1      47.346  80.303  41.626  0.00  0.00    +0.087 A 
ATOM      7  C   UNL     1      46.262  79.457  41.584  0.00  0.00    +0.085 A 
ATOM      8  I   UNL     1      48.882  80.033  43.032  0.00  0.00    -0.038 I 
ATOM      9  I   UNL     1      46.489  83.141  38.407  0.00  0.00    -0.038 I 
ENDROOT
BRANCH   1  10
ATOM     10  C   UNL     1      44.131  78.792  40.595  0.00  0.00    +0.217 C 
BRANCH  10  11
ATOM     11  C   UNL     1      43.614  78.664  39.221  0.00  0.00    +0.340 C 
ATOM     12  O   UNL     1      44.155  79.132  38.205  0.00  0.00    -0.248 OA
BRANCH  11  13
ATOM     13  O   UNL     1      42.427  77.966  39.037  0.00  0.00    -0.447 OA
BRANCH  13  14
ATOM     14  C   UNL     1      41.758  77.898  37.807  0.00  0.00    +0.208 C 
BRANCH  14  16
ATOM     15  C   UNL     1      40.983  75.591  37.822  0.00  0.00    +0.004 C 
ATOM     16  C   UNL     1      40.523  77.060  37.816  0.00  0.00    +0.047 C 
ENDBRANCH  14  16
ENDBRANCH  13  14
ENDBRANCH  11  13
ENDBRANCH  10  11
ENDBRANCH   1  10
TORSDOF 5
