REMARK  Name = Propiomazine
REMARK  5 active torsions:
REMARK  status: ('A' for Active; 'I' for Inactive)
REMARK    1  A    between atoms: C_2  and  C_3
REMARK    2  A    between atoms: C_3  and  C_5
REMARK    3  A    between atoms: N_18  and  C_19
REMARK    4  A    between atoms: C_19  and  C_20
REMARK    5  A    between atoms: C_20  and  N_22
REMARK                            x       y       z     vdW  Elec       q    Type
REMARK                         _______ _______ _______ _____ _____    ______ ____
ROOT
ATOM      1  C   UNL     1      47.964  81.954  41.403  0.00  0.00    +0.036 A 
ATOM      2  C   UNL     1      47.293  80.728  41.454  0.00  0.00    +0.018 A 
ATOM      3  C   UNL     1      46.223  80.431  40.592  0.00  0.00    +0.058 A 
ATOM      4  C   UNL     1      45.901  81.423  39.719  0.00  0.00    +0.043 A 
ATOM      5  C   UNL     1      46.540  82.613  39.657  0.00  0.00    +0.008 A 
ATOM      6  C   UNL     1      47.580  82.896  40.497  0.00  0.00    +0.003 A 
ATOM      7  S   UNL     1      44.555  81.193  38.575  0.00  0.00    -0.084 S 
ATOM      8  C   UNL     1      43.911  79.572  38.890  0.00  0.00    +0.043 A 
ATOM      9  C   UNL     1      42.870  79.171  38.120  0.00  0.00    +0.008 A 
ATOM     10  C   UNL     1      42.316  77.930  38.288  0.00  0.00    +0.001 A 
ATOM     11  C   UNL     1      42.837  77.105  39.249  0.00  0.00    +0.001 A 
ATOM     12  C   UNL     1      43.911  77.546  40.028  0.00  0.00    +0.015 A 
ATOM     13  C   UNL     1      44.479  78.818  39.857  0.00  0.00    +0.058 A 
ATOM     14  N   UNL     1      45.571  79.176  40.689  0.00  0.00    -0.285 N 
ENDROOT
BRANCH   1  15
ATOM     15  C   UNL     1      49.063  82.169  42.338  0.00  0.00    +0.173 C 
ATOM     16  O   UNL     1      49.791  81.226  42.720  0.00  0.00    -0.291 OA
BRANCH  15  18
ATOM     17  C   UNL     1      48.083  84.134  43.477  0.00  0.00    +0.009 C 
ATOM     18  C   UNL     1      49.308  83.541  42.839  0.00  0.00    +0.069 C 
ENDBRANCH  15  18
ENDBRANCH   1  15
BRANCH  14  19
ATOM     19  C   UNL     1      46.011  78.208  41.708  0.00  0.00    +0.111 C 
BRANCH  19  20
ATOM     20  C   UNL     1      44.932  77.188  42.007  0.00  0.00    +0.078 C 
ATOM     21  C   UNL     1      44.412  77.368  43.429  0.00  0.00    +0.019 C 
BRANCH  20  22
ATOM     22  N   UNL     1      45.539  75.851  41.992  0.00  0.00    -0.270 NA
ATOM     23  C   UNL     1      45.036  75.130  43.162  0.00  0.00    +0.090 C 
ATOM     24  C   UNL     1      46.968  75.922  42.083  0.00  0.00    +0.090 C 
ENDBRANCH  20  22
ENDBRANCH  19  20
ENDBRANCH  14  19
TORSDOF 5
