REMARK  Name = Proparacaine
REMARK  10 active torsions:
REMARK  status: ('A' for Active; 'I' for Inactive)
REMARK    1  A    between atoms: C_2  and  C_3
REMARK    2  A    between atoms: C_3  and  O_4
REMARK    3  A    between atoms: O_4  and  C_5
REMARK    4  A    between atoms: C_8  and  C_11
REMARK    5  A    between atoms: C_11  and  O_13
REMARK    6  A    between atoms: O_13  and  C_14
REMARK    7  A    between atoms: C_14  and  C_15
REMARK    8  A    between atoms: C_15  and  N_16
REMARK    9  A    between atoms: N_16  and  C_17
REMARK   10  A    between atoms: N_16  and  C_19
REMARK                            x       y       z     vdW  Elec       q    Type
REMARK                         _______ _______ _______ _____ _____    ______ ____
ROOT
ATOM      1  C   UNL     1      46.655  81.463  40.755  0.00  0.00    +0.155 A 
ATOM      2  C   UNL     1      45.808  81.628  39.679  0.00  0.00    +0.123 A 
ATOM      3  C   UNL     1      44.834  80.666  39.410  0.00  0.00    +0.028 A 
ATOM      4  C   UNL     1      44.702  79.547  40.206  0.00  0.00    +0.077 A 
ATOM      5  C   UNL     1      45.557  79.404  41.273  0.00  0.00    +0.010 A 
ATOM      6  C   UNL     1      46.538  80.339  41.570  0.00  0.00    +0.039 A 
ATOM      7  N   UNL     1      45.945  82.781  38.862  0.00  0.00    -0.125 NA
ENDROOT
BRANCH   4   8
ATOM      8  C   UNL     1      43.666  78.555  39.891  0.00  0.00    +0.341 C 
ATOM      9  O   UNL     1      43.460  77.557  40.607  0.00  0.00    -0.245 OA
BRANCH   8  10
ATOM     10  O   UNL     1      42.888  78.728  38.759  0.00  0.00    -0.444 OA
BRANCH  10  11
ATOM     11  C   UNL     1      42.146  77.686  38.167  0.00  0.00    +0.226 C 
BRANCH  11  12
ATOM     12  C   UNL     1      40.668  77.837  38.314  0.00  0.00    +0.120 C 
BRANCH  12  13
ATOM     13  N   UNL     1      39.932  77.113  37.349  0.00  0.00    -0.270 NA
BRANCH  13  14
ATOM     14  C   UNL     1      40.638  76.075  36.745  0.00  0.00    +0.072 C 
ATOM     15  C   UNL     1      40.503  74.729  37.464  0.00  0.00    +0.019 C 
ENDBRANCH  13  14
BRANCH  13  16
ATOM     16  C   UNL     1      38.550  77.079  37.517  0.00  0.00    +0.072 C 
ATOM     17  C   UNL     1      37.724  77.947  36.629  0.00  0.00    +0.019 C 
ENDBRANCH  13  16
ENDBRANCH  12  13
ENDBRANCH  11  12
ENDBRANCH  10  11
ENDBRANCH   8  10
ENDBRANCH   4   8
BRANCH   1  18
ATOM     18  O   UNL     1      47.608  82.439  40.988  0.00  0.00    -0.474 OA
BRANCH  18  19
ATOM     19  C   UNL     1      48.532  82.392  42.039  0.00  0.00    +0.205 C 
BRANCH  19  21
ATOM     20  C   UNL     1      48.904  84.659  43.027  0.00  0.00    +0.004 C 
ATOM     21  C   UNL     1      49.425  83.617  42.063  0.00  0.00    +0.047 C 
ENDBRANCH  19  21
ENDBRANCH  18  19
ENDBRANCH   1  18
TORSDOF 10
