REMARK  Name = Propentofylline_propionate
REMARK  7 active torsions:
REMARK  status: ('A' for Active; 'I' for Inactive)
REMARK    1  A    between atoms: C_2  and  C_3
REMARK    2  A    between atoms: C_3  and  N_4
REMARK    3  A    between atoms: N_11  and  C_16
REMARK    4  A    between atoms: C_16  and  C_17
REMARK    5  A    between atoms: C_17  and  C_18
REMARK    6  A    between atoms: C_18  and  C_19
REMARK    7  A    between atoms: C_19  and  C_20
REMARK                            x       y       z     vdW  Elec       q    Type
REMARK                         _______ _______ _______ _____ _____    ______ ____
ROOT
ATOM      1  N   UNL     1      44.538  79.902  39.501  0.00  0.00    -0.304 N 
ATOM      2  C   UNL     1      44.227  80.554  38.341  0.00  0.00    +0.180 A 
ATOM      3  N   UNL     1      45.099  81.557  38.142  0.00  0.00    -0.206 NA
ATOM      4  C   UNL     1      45.983  81.579  39.151  0.00  0.00    +0.170 A 
ATOM      5  C   UNL     1      45.610  80.527  39.995  0.00  0.00    +0.153 A 
ATOM      6  C   UNL     1      46.392  80.332  41.120  0.00  0.00    +0.283 A 
ATOM      7  O   UNL     1      46.164  79.417  41.957  0.00  0.00    -0.265 OA
ATOM      8  N   UNL     1      47.455  81.114  41.389  0.00  0.00    -0.247 N 
ATOM      9  C   UNL     1      47.763  82.107  40.545  0.00  0.00    +0.335 A 
ATOM     10  O   UNL     1      48.743  82.836  40.786  0.00  0.00    -0.246 OA
ATOM     11  N   UNL     1      47.045  82.355  39.428  0.00  0.00    -0.263 N 
ATOM     12  C   UNL     1      47.446  83.449  38.570  0.00  0.00    +0.137 C 
ENDROOT
BRANCH   1  13
ATOM     13  C   UNL     1      43.831  78.793  40.097  0.00  0.00    +0.108 C 
BRANCH  13  15
ATOM     14  C   UNL     1      42.557  76.719  39.617  0.00  0.00    +0.002 C 
ATOM     15  C   UNL     1      43.143  77.966  39.055  0.00  0.00    +0.025 C 
ENDBRANCH  13  15
ENDBRANCH   1  13
BRANCH   8  16
ATOM     16  C   UNL     1      48.271  80.881  42.592  0.00  0.00    +0.114 C 
BRANCH  16  17
ATOM     17  C   UNL     1      49.291  82.007  42.692  0.00  0.00    +0.025 C 
BRANCH  17  18
ATOM     18  C   UNL     1      48.691  83.341  42.975  0.00  0.00    +0.010 C 
BRANCH  18  19
ATOM     19  C   UNL     1      49.379  83.926  44.178  0.00  0.00    +0.065 C 
BRANCH  19  20
ATOM     20  C   UNL     1      50.726  84.425  43.940  0.00  0.00    +0.151 C 
ATOM     21  O   UNL     1      51.519  83.705  43.314  0.00  0.00    -0.296 OA
ATOM     22  C   UNL     1      51.224  85.735  44.390  0.00  0.00    +0.072 C 
ENDBRANCH  19  20
ENDBRANCH  18  19
ENDBRANCH  17  18
ENDBRANCH  16  17
ENDBRANCH   8  16
TORSDOF 7
