REMARK  Name = Propantheline
REMARK  7 active torsions:
REMARK  status: ('A' for Active; 'I' for Inactive)
REMARK    1  A    between atoms: C_2  and  N_4
REMARK    2  A    between atoms: N_4  and  C_6
REMARK    3  A    between atoms: N_4  and  C_25
REMARK    4  A    between atoms: C_6  and  C_7
REMARK    5  A    between atoms: C_7  and  O_8
REMARK    6  A    between atoms: O_8  and  C_9
REMARK    7  A    between atoms: C_9  and  C_11
REMARK                            x       y       z     vdW  Elec       q    Type
REMARK                         _______ _______ _______ _____ _____    ______ ____
ROOT
ATOM      1  C   UNL     1      44.707  80.378  40.097  0.00  0.00    +0.149 C 
ATOM      2  C   UNL     1      44.777  79.172  40.919  0.00  0.00    +0.027 A 
ATOM      3  C   UNL     1      43.587  78.421  41.062  0.00  0.00    -0.000 A 
ATOM      4  C   UNL     1      43.658  77.284  41.815  0.00  0.00    -0.000 A 
ATOM      5  C   UNL     1      44.812  76.846  42.427  0.00  0.00    +0.003 A 
ATOM      6  C   UNL     1      45.941  77.609  42.259  0.00  0.00    +0.037 A 
ATOM      7  C   UNL     1      45.948  78.789  41.502  0.00  0.00    +0.142 A 
ATOM      8  O   UNL     1      47.131  79.514  41.378  0.00  0.00    -0.454 OA
ATOM      9  C   UNL     1      47.094  80.681  40.622  0.00  0.00    +0.142 A 
ATOM     10  C   UNL     1      48.290  81.420  40.499  0.00  0.00    +0.037 A 
ATOM     11  C   UNL     1      48.369  82.586  39.782  0.00  0.00    +0.003 A 
ATOM     12  C   UNL     1      47.209  83.014  39.174  0.00  0.00    -0.000 A 
ATOM     13  C   UNL     1      46.051  82.304  39.289  0.00  0.00    -0.000 A 
ATOM     14  C   UNL     1      45.948  81.115  40.013  0.00  0.00    +0.027 A 
ENDROOT
BRANCH   1  15
ATOM     15  C   UNL     1      44.078  80.081  38.795  0.00  0.00    +0.325 C 
ATOM     16  O   UNL     1      44.157  80.930  37.893  0.00  0.00    -0.249 OA
BRANCH  15  17
ATOM     17  O   UNL     1      43.416  78.922  38.541  0.00  0.00    -0.450 OA
BRANCH  17  18
ATOM     18  C   UNL     1      42.468  78.653  37.536  0.00  0.00    +0.186 C 
BRANCH  18  19
ATOM     19  C   UNL     1      41.161  78.385  38.186  0.00  0.00    -0.025 C 
BRANCH  19  20
ATOM     20  N   UNL     1      40.553  77.104  37.908  0.00  0.00    +0.394 N 
ATOM     21  C   UNL     1      41.386  76.216  37.121  0.00  0.00    -0.095 C 
BRANCH  20  23
ATOM     22  C   UNL     1      38.852  78.609  36.901  0.00  0.00    -0.022 C 
ATOM     23  C   UNL     1      39.285  77.199  37.239  0.00  0.00    -0.054 C 
ATOM     24  C   UNL     1      39.190  76.442  35.941  0.00  0.00    -0.022 C 
ENDBRANCH  20  23
BRANCH  20  25
ATOM     25  C   UNL     1      40.431  76.450  39.209  0.00  0.00    -0.054 C 
ATOM     26  C   UNL     1      39.488  77.154  40.135  0.00  0.00    -0.022 C 
ATOM     27  C   UNL     1      40.050  75.006  39.135  0.00  0.00    -0.022 C 
ENDBRANCH  20  25
ENDBRANCH  19  20
ENDBRANCH  18  19
ENDBRANCH  17  18
ENDBRANCH  15  17
ENDBRANCH   1  15
TORSDOF 7
