REMARK  Name = Propicillin
REMARK  6 active torsions:
REMARK  status: ('A' for Active; 'I' for Inactive)
REMARK    1  A    between atoms: C_2  and  C_3
REMARK    2  A    between atoms: C_3  and  C_4
REMARK    3  A    between atoms: C_3  and  O_20
REMARK    4  A    between atoms: N_6  and  CA_7
REMARK    5  A    between atoms: CA_12  and  C_17
REMARK    6  A    between atoms: O_20  and  C_21
REMARK                            x       y       z     vdW  Elec       q    Type
REMARK                         _______ _______ _______ _____ _____    ______ ____
ROOT
ATOM      1  C   UNL     1      44.200  79.435  39.565  0.00  0.00    +0.282 C 
ATOM      2  O   UNL     1      44.006  79.650  38.341  0.00  0.00    -0.269 OA
ATOM      3  N   UNL     1      44.987  80.377  40.281  0.00  0.00    -0.192 NA
ENDROOT
BRANCH   3   4
ATOM      4  CA  UNL     1      46.363  80.678  39.926  0.00  0.00    +0.200 C 
ATOM      5  C   UNL     1      47.154  81.068  41.126  0.00  0.00    +0.153 C 
ATOM      6  N   UNL     1      47.667  82.261  40.475  0.00  0.00    -0.259 N 
ATOM      7  C   UNL     1      46.531  82.152  39.635  0.00  0.00    +0.249 C 
ATOM      8  O   UNL     1      45.830  82.894  38.887  0.00  0.00    -0.273 OA
ATOM      9  CA  UNL     1      48.861  82.755  41.010  0.00  0.00    +0.189 C 
ATOM     10  C   UNL     1      49.624  81.739  41.738  0.00  0.00    +0.068 C 
ATOM     11  S   UNL     1      48.750  80.193  41.352  0.00  0.00    -0.118 S 
ATOM     12  C   UNL     1      51.084  81.651  41.383  0.00  0.00    +0.013 C 
ATOM     13  C   UNL     1      49.450  81.967  43.236  0.00  0.00    +0.013 C 
BRANCH   9  14
ATOM     14  C   UNL     1      48.533  83.902  41.928  0.00  0.00    +0.383 C 
ATOM     15  O   UNL     1      47.450  83.930  42.566  0.00  0.00    -0.244 OA
ATOM     16  OXT UNL     1      49.408  84.965  42.103  0.00  0.00    -0.244 OA
ENDBRANCH   9  14
ENDBRANCH   3   4
BRANCH   1  17
ATOM     17  C   UNL     1      43.617  78.228  40.222  0.00  0.00    +0.243 C 
BRANCH  17  19
ATOM     18  C   UNL     1      44.066  76.355  41.785  0.00  0.00    +0.004 C 
ATOM     19  C   UNL     1      44.581  77.674  41.259  0.00  0.00    +0.053 C 
ENDBRANCH  17  19
BRANCH  17  20
ATOM     20  O   UNL     1      43.246  77.268  39.305  0.00  0.00    -0.470 OA
BRANCH  20  21
ATOM     21  C   UNL     1      42.014  77.117  38.730  0.00  0.00    +0.139 A 
ATOM     22  C   UNL     1      41.173  76.111  39.219  0.00  0.00    +0.037 A 
ATOM     23  C   UNL     1      39.933  75.905  38.692  0.00  0.00    +0.003 A 
ATOM     24  C   UNL     1      39.476  76.679  37.667  0.00  0.00    +0.000 A 
ATOM     25  C   UNL     1      40.260  77.668  37.161  0.00  0.00    +0.003 A 
ATOM     26  C   UNL     1      41.530  77.877  37.702  0.00  0.00    +0.037 A 
ENDBRANCH  20  21
ENDBRANCH  17  20
ENDBRANCH   1  17
TORSDOF 6
