REMARK  Name = Propylthiouracil
REMARK  2 active torsions:
REMARK  status: ('A' for Active; 'I' for Inactive)
REMARK    1  A    between atoms: C_2  and  C_3
REMARK    2  A    between atoms: C_3  and  C_4
REMARK                            x       y       z     vdW  Elec       q    Type
REMARK                         _______ _______ _______ _____ _____    ______ ____
ROOT
ATOM      1  C   UNL     1      45.927  79.888  40.192  0.00  0.00    +0.066 A 
ATOM      2  C   UNL     1      45.203  80.436  39.148  0.00  0.00    +0.077 A 
ATOM      3  C   UNL     1      45.493  81.727  38.739  0.00  0.00    +0.282 A 
ATOM      4  O   UNL     1      44.861  82.274  37.790  0.00  0.00    -0.265 OA
ATOM      5  N   UNL     1      46.469  82.390  39.379  0.00  0.00    -0.182 NA
ATOM      6  C   UNL     1      47.180  81.864  40.398  0.00  0.00    +0.203 A 
ATOM      7  S   UNL     1      48.356  82.756  41.117  0.00  0.00    -0.009 S 
ATOM      8  N   UNL     1      46.889  80.614  40.782  0.00  0.00    -0.225 NA
ENDROOT
BRANCH   1   9
ATOM      9  C   UNL     1      45.691  78.516  40.701  0.00  0.00    +0.046 C 
BRANCH   9  11
ATOM     10  C   UNL     1      44.362  77.553  42.585  0.00  0.00    +0.000 C 
ATOM     11  C   UNL     1      45.307  78.646  42.160  0.00  0.00    +0.006 C 
ENDBRANCH   9  11
ENDBRANCH   1   9
TORSDOF 2
