REMARK  Name = Proquazone
REMARK  2 active torsions:
REMARK  status: ('A' for Active; 'I' for Inactive)
REMARK    1  A    between atoms: C_8  and  C_16
REMARK    2  A    between atoms: N_12  and  C_13
REMARK                            x       y       z     vdW  Elec       q    Type
REMARK                         _______ _______ _______ _____ _____    ______ ____
ROOT
ATOM      1  C   UNL     1      47.874  85.946  43.719  0.00  0.00    +0.031 C 
ATOM      2  C   UNL     1      47.809  84.595  43.108  0.00  0.00    -0.020 A 
ATOM      3  C   UNL     1      49.014  83.904  42.975  0.00  0.00    +0.013 A 
ATOM      4  C   UNL     1      49.021  82.663  42.424  0.00  0.00    +0.065 A 
ATOM      5  C   UNL     1      47.822  82.075  41.988  0.00  0.00    +0.034 A 
ATOM      6  C   UNL     1      46.627  82.747  42.112  0.00  0.00    +0.003 A 
ATOM      7  C   UNL     1      46.646  84.007  42.676  0.00  0.00    -0.004 A 
ATOM      8  C   UNL     1      47.854  80.821  41.420  0.00  0.00    +0.087 A 
ATOM      9  N   UNL     1      49.056  80.213  41.306  0.00  0.00    -0.192 NA
ATOM     10  C   UNL     1      50.166  80.813  41.734  0.00  0.00    +0.350 A 
ATOM     11  O   UNL     1      51.296  80.207  41.611  0.00  0.00    -0.244 OA
ATOM     12  N   UNL     1      50.218  82.034  42.301  0.00  0.00    -0.282 N 
ENDROOT
BRANCH   8  13
ATOM     13  C   UNL     1      46.667  80.121  40.929  0.00  0.00    +0.018 A 
ATOM     14  C   UNL     1      45.853  80.620  39.952  0.00  0.00    +0.001 A 
ATOM     15  C   UNL     1      44.766  79.891  39.528  0.00  0.00    +0.000 A 
ATOM     16  C   UNL     1      44.522  78.665  40.103  0.00  0.00    +0.000 A 
ATOM     17  C   UNL     1      45.316  78.118  41.095  0.00  0.00    +0.000 A 
ATOM     18  C   UNL     1      46.394  78.894  41.482  0.00  0.00    +0.001 A 
ENDBRANCH   8  13
BRANCH  12  19
ATOM     19  C   UNL     1      51.468  82.625  42.745  0.00  0.00    +0.090 C 
ATOM     20  C   UNL     1      52.174  81.799  43.794  0.00  0.00    +0.025 C 
ATOM     21  C   UNL     1      52.334  83.115  41.652  0.00  0.00    +0.025 C 
ENDBRANCH  12  19
TORSDOF 2
