REMARK  Name = Protokylol_Hydrochloride
REMARK  6 active torsions:
REMARK  status: ('A' for Active; 'I' for Inactive)
REMARK    1  A    between atoms: C_2  and  C_3
REMARK    2  A    between atoms: C_2  and  N_13
REMARK    3  A    between atoms: C_3  and  C_4
REMARK    4  A    between atoms: N_13  and  C_14
REMARK    5  A    between atoms: C_14  and  C_15
REMARK    6  A    between atoms: C_15  and  C_16
REMARK                            x       y       z     vdW  Elec       q    Type
REMARK                         _______ _______ _______ _____ _____    ______ ____
ROOT
ATOM      1  C   UNL     1      45.208  76.183  40.809  0.00  0.00    +0.019 C 
ATOM      2  C   UNL     1      45.175  77.553  40.215  0.00  0.00    +0.077 C 
ENDROOT
BRANCH   2   3
ATOM      3  C   UNL     1      43.841  78.216  40.466  0.00  0.00    +0.044 C 
BRANCH   3   4
ATOM      4  C   UNL     1      42.715  77.474  39.890  0.00  0.00    -0.018 A 
ATOM      5  C   UNL     1      42.247  77.690  38.597  0.00  0.00    +0.036 A 
ATOM      6  C   UNL     1      41.188  76.983  38.071  0.00  0.00    +0.176 A 
ATOM      7  C   UNL     1      40.545  76.017  38.828  0.00  0.00    +0.176 A 
ATOM      8  C   UNL     1      40.987  75.781  40.112  0.00  0.00    +0.040 A 
ATOM      9  C   UNL     1      42.063  76.508  40.627  0.00  0.00    -0.001 A 
ATOM     10  O   UNL     1      39.511  75.458  38.052  0.00  0.00    -0.435 OA
ATOM     11  C   UNL     1      39.285  76.298  36.959  0.00  0.00    +0.429 C 
ATOM     12  O   UNL     1      40.519  76.983  36.845  0.00  0.00    -0.435 OA
ENDBRANCH   3   4
ENDBRANCH   2   3
BRANCH   2  13
ATOM     13  N   UNL     1      46.282  78.377  40.598  0.00  0.00    -0.216 NA
BRANCH  13  14
ATOM     14  C   UNL     1      46.369  78.588  42.024  0.00  0.00    +0.126 C 
BRANCH  14  15
ATOM     15  C   UNL     1      47.559  79.465  42.346  0.00  0.00    +0.192 C 
ATOM     16  O   UNL     1      47.658  79.678  43.736  0.00  0.00    -0.217 OA
BRANCH  15  17
ATOM     17  C   UNL     1      47.456  80.798  41.728  0.00  0.00    +0.013 A 
ATOM     18  C   UNL     1      48.200  81.096  40.612  0.00  0.00    +0.044 A 
ATOM     19  C   UNL     1      48.144  82.329  39.990  0.00  0.00    +0.234 A 
ATOM     20  C   UNL     1      47.315  83.308  40.495  0.00  0.00    +0.234 A 
ATOM     21  C   UNL     1      46.571  83.026  41.601  0.00  0.00    +0.045 A 
ATOM     22  C   UNL     1      46.633  81.780  42.224  0.00  0.00    +0.002 A 
ATOM     23  O   UNL     1      47.263  84.563  39.855  0.00  0.00    -0.283 OA
ATOM     24  O   UNL     1      48.901  82.608  38.869  0.00  0.00    -0.283 OA
ENDBRANCH  15  17
ENDBRANCH  14  15
ENDBRANCH  13  14
ENDBRANCH   2  13
TORSDOF 6
REMARK  Name = Protokylol_Hydrochloride
REMARK  6 active torsions:
REMARK  status: ('A' for Active; 'I' for Inactive)
REMARK    1  A    between atoms: C_2  and  C_3
REMARK    2  A    between atoms: C_2  and  N_13
REMARK    3  A    between atoms: C_3  and  C_4
REMARK    4  A    between atoms: N_13  and  C_14
REMARK    5  A    between atoms: C_14  and  C_15
REMARK    6  A    between atoms: C_15  and  C_16
REMARK                            x       y       z     vdW  Elec       q    Type
REMARK                         _______ _______ _______ _____ _____    ______ ____
ROOT
ATOM      1 CL   UNL     1      45.320  79.258  40.498  0.00  0.00    +0.000 Cl
ENDROOT
TORSDOF 0
