REMARK  Name = Prothionamide
REMARK  3 active torsions:
REMARK  status: ('A' for Active; 'I' for Inactive)
REMARK    1  A    between atoms: C_2  and  C_3
REMARK    2  A    between atoms: C_3  and  C_4
REMARK    3  A    between atoms: C_8  and  C_10
REMARK                            x       y       z     vdW  Elec       q    Type
REMARK                         _______ _______ _______ _____ _____    ______ ____
ROOT
ATOM      1  C   UNL     1      45.495  80.609  38.917  0.00  0.00    +0.059 A 
ATOM      2  N   UNL     1      45.499  81.742  38.197  0.00  0.00    -0.248 NA
ATOM      3  C   UNL     1      46.310  82.770  38.481  0.00  0.00    +0.099 A 
ATOM      4  C   UNL     1      47.156  82.651  39.542  0.00  0.00    +0.023 A 
ATOM      5  C   UNL     1      47.193  81.492  40.327  0.00  0.00    +0.026 A 
ATOM      6  C   UNL     1      46.342  80.455  40.002  0.00  0.00    +0.017 A 
ENDROOT
BRANCH   5   7
ATOM      7  C   UNL     1      48.104  81.390  41.454  0.00  0.00    +0.125 C 
ATOM      8  S   UNL     1      49.125  82.596  41.823  0.00  0.00    -0.031 S 
ATOM      9  N   UNL     1      48.129  80.232  42.265  0.00  0.00    -0.120 NA
ENDBRANCH   5   7
BRANCH   1  10
ATOM     10  C   UNL     1      44.569  79.484  38.562  0.00  0.00    +0.046 C 
BRANCH  10  12
ATOM     11  C   UNL     1      42.895  77.929  39.587  0.00  0.00    +0.000 C 
ATOM     12  C   UNL     1      43.821  79.097  39.816  0.00  0.00    +0.006 C 
ENDBRANCH  10  12
ENDBRANCH   1  10
TORSDOF 3
