REMARK  Name = protirelin
REMARK  6 active torsions:
REMARK  status: ('A' for Active; 'I' for Inactive)
REMARK    1  A    between atoms: C_3  and  C_24
REMARK    2  A    between atoms: C_6  and  C_8
REMARK    3  A    between atoms: C_8  and  C_9
REMARK    4  A    between atoms: C_8  and  N_15
REMARK    5  A    between atoms: C_9  and  C_10
REMARK    6  A    between atoms: C_16  and  C_18
REMARK                            x       y       z     vdW  Elec       q    Type
REMARK                         _______ _______ _______ _____ _____    ______ ____
ROOT
ATOM      1  C   UNL     1      47.580  81.178  41.528  0.00  0.00    +0.177 C 
ENDROOT
BRANCH   1   7
ATOM      2  C   UNL     1      48.655  84.831  43.562  0.00  0.00    +0.024 C 
ATOM      3  C   UNL     1      50.002  84.640  42.840  0.00  0.00    +0.031 C 
ATOM      4  C   UNL     1      50.326  83.263  43.405  0.00  0.00    +0.155 C 
ATOM      5  N   UNL     1      49.091  82.602  43.058  0.00  0.00    -0.272 N 
ATOM      6  C   UNL     1      48.134  83.383  43.805  0.00  0.00    +0.094 C 
ATOM      7  C   UNL     1      48.824  81.561  42.179  0.00  0.00    +0.246 C 
ATOM      8  O   UNL     1      49.811  80.764  41.849  0.00  0.00    -0.273 OA
BRANCH   4   9
ATOM      9  C   UNL     1      51.591  82.707  43.086  0.00  0.00    +0.279 C 
ATOM     10  O   UNL     1      52.645  82.894  43.709  0.00  0.00    -0.270 OA
ATOM     11  N   UNL     1      51.681  81.854  41.950  0.00  0.00    -0.086 NA
ENDBRANCH   4   9
ENDBRANCH   1   7
BRANCH   1  12
ATOM     12  N   UNL     1      47.252  79.798  41.709  0.00  0.00    -0.196 NA
ATOM     13  C   UNL     1      45.890  79.317  41.596  0.00  0.00    +0.262 C 
ATOM     14  O   UNL     1      45.001  80.108  41.245  0.00  0.00    -0.271 OA
BRANCH  13  15
ATOM     15  C   UNL     1      45.686  77.888  41.920  0.00  0.00    +0.173 C 
ATOM     16  C   UNL     1      46.259  77.068  40.781  0.00  0.00    +0.041 C 
ATOM     17  C   UNL     1      45.052  76.753  39.935  0.00  0.00    +0.089 C 
ATOM     18  C   UNL     1      43.984  76.591  40.955  0.00  0.00    +0.242 C 
ATOM     19  O   UNL     1      43.006  75.788  40.888  0.00  0.00    -0.273 OA
ATOM     20  N   UNL     1      44.307  77.517  41.986  0.00  0.00    -0.198 NA
ENDBRANCH  13  15
ENDBRANCH   1  12
BRANCH   1  21
ATOM     21  C   UNL     1      47.683  81.441  40.023  0.00  0.00    +0.078 C 
BRANCH  21  22
ATOM     22  C   UNL     1      46.418  81.438  39.297  0.00  0.00    +0.082 A 
ATOM     23  C   UNL     1      45.187  80.990  39.810  0.00  0.00    +0.115 A 
ATOM     24  N   UNL     1      44.246  81.150  38.877  0.00  0.00    -0.221 NA
ATOM     25  C   UNL     1      44.794  81.675  37.789  0.00  0.00    +0.199 A 
ATOM     26  N   UNL     1      46.105  81.843  38.057  0.00  0.00    -0.227 NA
ENDBRANCH  21  22
ENDBRANCH   1  21
TORSDOF 6
