REMARK  Name = Protriptyline
REMARK  4 active torsions:
REMARK  status: ('A' for Active; 'I' for Inactive)
REMARK    1  A    between atoms: N_2  and  C_3
REMARK    2  A    between atoms: C_3  and  C_4
REMARK    3  A    between atoms: C_4  and  C_5
REMARK    4  A    between atoms: C_5  and  C_6
REMARK                            x       y       z     vdW  Elec       q    Type
REMARK                         _______ _______ _______ _____ _____    ______ ____
ROOT
ATOM      1  C   UNL     1      47.980  81.017  41.700  0.00  0.00    +0.045 C 
ATOM      2  C   UNL     1      46.786  80.819  40.845  0.00  0.00    -0.018 A 
ATOM      3  C   UNL     1      46.146  79.651  41.202  0.00  0.00    -0.004 A 
ATOM      4  C   UNL     1      44.997  79.275  40.498  0.00  0.00    -0.000 A 
ATOM      5  C   UNL     1      44.541  80.076  39.476  0.00  0.00    -0.000 A 
ATOM      6  C   UNL     1      45.173  81.244  39.113  0.00  0.00    -0.000 A 
ATOM      7  C   UNL     1      46.306  81.604  39.816  0.00  0.00    -0.004 A 
ATOM      8  C   UNL     1      46.904  82.860  39.367  0.00  0.00    -0.000 C 
ATOM      9  C   UNL     1      47.608  83.726  40.087  0.00  0.00    -0.000 C 
ATOM     10  C   UNL     1      47.938  83.594  41.524  0.00  0.00    -0.004 A 
ATOM     11  C   UNL     1      48.070  84.828  42.119  0.00  0.00    -0.000 A 
ATOM     12  C   UNL     1      48.351  84.858  43.467  0.00  0.00    -0.000 A 
ATOM     13  C   UNL     1      48.496  83.697  44.198  0.00  0.00    -0.000 A 
ATOM     14  C   UNL     1      48.360  82.471  43.581  0.00  0.00    -0.004 A 
ATOM     15  C   UNL     1      48.078  82.395  42.224  0.00  0.00    -0.018 A 
ENDROOT
BRANCH   1  16
ATOM     16  C   UNL     1      49.161  80.653  40.834  0.00  0.00    +0.010 C 
BRANCH  16  17
ATOM     17  C   UNL     1      50.366  80.158  41.536  0.00  0.00    +0.019 C 
BRANCH  17  18
ATOM     18  C   UNL     1      50.818  81.061  42.639  0.00  0.00    +0.089 C 
BRANCH  18  20
ATOM     19  C   UNL     1      51.587  81.109  44.877  0.00  0.00    +0.107 C 
ATOM     20  N   UNL     1      50.746  80.384  43.944  0.00  0.00    -0.217 NA
ENDBRANCH  18  20
ENDBRANCH  17  18
ENDBRANCH  16  17
ENDBRANCH   1  16
TORSDOF 4
