REMARK  Name = Prulifloxacin
REMARK  4 active torsions:
REMARK  status: ('A' for Active; 'I' for Inactive)
REMARK    1  A    between atoms: C_6  and  N_19
REMARK    2  A    between atoms: C_12  and  C_15
REMARK    3  A    between atoms: N_22  and  C_25
REMARK    4  A    between atoms: C_25  and  C_26
REMARK                            x       y       z     vdW  Elec       q    Type
REMARK                         _______ _______ _______ _____ _____    ______ ____
ROOT
ATOM      1  C   UNL     1      43.244  77.308  43.058  0.00  0.00    +0.037 C 
ATOM      2  C   UNL     1      43.687  76.591  41.767  0.00  0.00    +0.139 C 
ATOM      3  N   UNL     1      43.540  77.357  40.598  0.00  0.00    -0.314 N 
ATOM      4  C   UNL     1      43.935  78.552  40.008  0.00  0.00    +0.065 A 
ATOM      5  C   UNL     1      44.776  79.413  40.686  0.00  0.00    +0.034 A 
ATOM      6  C   UNL     1      45.187  80.621  40.115  0.00  0.00    +0.077 A 
ATOM      7  C   UNL     1      44.721  80.913  38.859  0.00  0.00    +0.154 A 
ATOM      8  C   UNL     1      43.880  80.064  38.165  0.00  0.00    +0.036 A 
ATOM      9  C   UNL     1      43.482  78.860  38.759  0.00  0.00    +0.057 A 
ATOM     10  C   UNL     1      42.639  78.019  38.056  0.00  0.00    +0.205 A 
ATOM     11  O   UNL     1      42.213  78.294  36.898  0.00  0.00    -0.286 OA
ATOM     12  C   UNL     1      42.283  76.853  38.691  0.00  0.00    +0.140 A 
ATOM     13  C   UNL     1      42.757  76.535  39.993  0.00  0.00    +0.098 A 
ATOM     14  S   UNL     1      42.663  75.304  41.218  0.00  0.00    -0.074 S 
ATOM     15  F   UNL     1      45.126  82.097  38.302  0.00  0.00    -0.203 F 
ENDROOT
BRANCH   6  16
ATOM     16  N   UNL     1      46.059  81.479  40.862  0.00  0.00    -0.303 N 
ATOM     17  C   UNL     1      46.463  82.771  40.343  0.00  0.00    +0.108 C 
ATOM     18  C   UNL     1      47.949  83.025  40.464  0.00  0.00    +0.094 C 
ATOM     19  N   UNL     1      48.565  81.996  41.225  0.00  0.00    -0.263 NA
ATOM     20  C   UNL     1      47.861  81.796  42.450  0.00  0.00    +0.094 C 
ATOM     21  C   UNL     1      46.559  81.084  42.162  0.00  0.00    +0.108 C 
BRANCH  19  22
ATOM     22  C   UNL     1      49.977  81.974  41.300  0.00  0.00    +0.141 C 
BRANCH  22  23
ATOM     23  C   UNL     1      50.622  82.936  42.187  0.00  0.00    +0.176 A 
ATOM     24  C   UNL     1      51.951  83.275  42.256  0.00  0.00    +0.161 A 
ATOM     25  O   UNL     1      52.036  84.186  43.208  0.00  0.00    -0.395 OA
ATOM     26  C   UNL     1      50.856  84.420  43.717  0.00  0.00    +0.521 A 
ATOM     27  O   UNL     1      50.620  85.249  44.652  0.00  0.00    -0.202 OA
ATOM     28  O   UNL     1      50.008  83.656  43.088  0.00  0.00    -0.394 OA
ATOM     29  C   UNL     1      53.107  82.765  41.462  0.00  0.00    +0.076 C 
ENDBRANCH  22  23
ENDBRANCH  19  22
ENDBRANCH   6  16
BRANCH  12  30
ATOM     30  C   UNL     1      41.404  75.894  38.052  0.00  0.00    +0.393 C 
ATOM     31  O   UNL     1      41.479  74.679  38.371  0.00  0.00    -0.240 OA
ATOM     32  O   UNL     1      40.465  76.242  37.088  0.00  0.00    -0.240 OA
ENDBRANCH  12  30
TORSDOF 4
