REMARK  Name = PSI-7977
REMARK  11 active torsions:
REMARK  status: ('A' for Active; 'I' for Inactive)
REMARK    1  A    between atoms: C_2  and  O_4
REMARK    2  A    between atoms: O_4  and  C_5
REMARK    3  A    between atoms: C_5  and  C_7
REMARK    4  A    between atoms: C_7  and  N_9
REMARK    5  A    between atoms: N_9  and  P_10
REMARK    6  A    between atoms: P_10  and  O_12
REMARK    7  A    between atoms: P_10  and  O_30
REMARK    8  A    between atoms: O_12  and  C_13
REMARK    9  A    between atoms: C_13  and  C_14
REMARK   10  A    between atoms: C_17  and  N_19
REMARK   11  A    between atoms: O_30  and  C_31
REMARK                            x       y       z     vdW  Elec       q    Type
REMARK                         _______ _______ _______ _____ _____    ______ ____
ROOT
ATOM      1  P   UNL     1      48.835  80.262  44.001  0.00  0.00    +0.480 P 
ATOM      2  O   UNL     1      47.856  80.630  45.117  0.00  0.00    -0.227 OA
ENDROOT
BRANCH   1   3
ATOM      3  N   UNL     1      50.449  80.492  44.587  0.00  0.00    -0.101 NA
BRANCH   3   4
ATOM      4  C   UNL     1      51.300  79.339  44.372  0.00  0.00    +0.183 C 
ATOM      5  C   UNL     1      52.618  79.594  45.084  0.00  0.00    +0.031 C 
BRANCH   4   6
ATOM      6  C   UNL     1      51.619  79.282  42.915  0.00  0.00    +0.333 C 
ATOM      7  O   UNL     1      51.332  80.223  42.129  0.00  0.00    -0.249 OA
BRANCH   6   8
ATOM      8  O   UNL     1      52.256  78.176  42.342  0.00  0.00    -0.451 OA
BRANCH   8  10
ATOM      9  C   UNL     1      51.228  77.866  40.216  0.00  0.00    +0.047 C 
ATOM     10  C   UNL     1      52.530  78.101  40.958  0.00  0.00    +0.169 C 
ATOM     11  C   UNL     1      53.448  76.950  40.610  0.00  0.00    +0.047 C 
ENDBRANCH   8  10
ENDBRANCH   6   8
ENDBRANCH   4   6
ENDBRANCH   3   4
ENDBRANCH   1   3
BRANCH   1  12
ATOM     12  O   UNL     1      48.608  78.617  43.695  0.00  0.00    -0.270 OA
BRANCH  12  13
ATOM     13  C   UNL     1      47.258  78.274  43.708  0.00  0.00    +0.186 C 
BRANCH  13  14
ATOM     14  C   UNL     1      46.761  77.830  42.370  0.00  0.00    +0.180 C 
ATOM     15  C   UNL     1      45.344  77.353  42.379  0.00  0.00    +0.215 C 
ATOM     16  C   UNL     1      44.665  78.487  41.597  0.00  0.00    +0.209 C 
ATOM     17  C   UNL     1      45.780  78.749  40.583  0.00  0.00    +0.241 C 
ATOM     18  O   UNL     1      46.882  78.833  41.428  0.00  0.00    -0.331 OA
ATOM     19  C   UNL     1      43.411  78.022  40.938  0.00  0.00    +0.043 C 
ATOM     20  F   UNL     1      44.496  79.531  42.453  0.00  0.00    -0.233 F 
ATOM     21  O   UNL     1      44.799  77.164  43.616  0.00  0.00    -0.217 OA
BRANCH  17  22
ATOM     22  N   UNL     1      45.568  79.932  39.820  0.00  0.00    -0.253 N 
ATOM     23  C   UNL     1      46.208  81.058  40.191  0.00  0.00    +0.087 A 
ATOM     24  C   UNL     1      46.066  82.257  39.512  0.00  0.00    +0.081 A 
ATOM     25  C   UNL     1      45.225  82.248  38.419  0.00  0.00    +0.285 A 
ATOM     26  O   UNL     1      45.091  83.343  37.793  0.00  0.00    -0.265 OA
ATOM     27  N   UNL     1      44.583  81.130  38.040  0.00  0.00    -0.153 NA
ATOM     28  C   UNL     1      44.764  79.998  38.744  0.00  0.00    +0.355 A 
ATOM     29  O   UNL     1      44.146  78.955  38.366  0.00  0.00    -0.244 OA
ENDBRANCH  17  22
ENDBRANCH  13  14
ENDBRANCH  12  13
ENDBRANCH   1  12
BRANCH   1  30
ATOM     30  O   UNL     1      48.495  81.176  42.615  0.00  0.00    -0.411 OA
BRANCH  30  31
ATOM     31  C   UNL     1      48.410  82.557  42.697  0.00  0.00    +0.148 A 
ATOM     32  C   UNL     1      47.205  83.212  42.826  0.00  0.00    +0.037 A 
ATOM     33  C   UNL     1      47.193  84.589  42.902  0.00  0.00    +0.003 A 
ATOM     34  C   UNL     1      48.353  85.348  42.855  0.00  0.00    +0.000 A 
ATOM     35  C   UNL     1      49.545  84.694  42.727  0.00  0.00    +0.003 A 
ATOM     36  C   UNL     1      49.561  83.302  42.650  0.00  0.00    +0.037 A 
ENDBRANCH  30  31
ENDBRANCH   1  30
TORSDOF 11
