REMARK  Name = Pyrantel
REMARK  2 active torsions:
REMARK  status: ('A' for Active; 'I' for Inactive)
REMARK    1  A    between atoms: C_7  and  C_8
REMARK    2  A    between atoms: C_9  and  C_10
REMARK                            x       y       z     vdW  Elec       q    Type
REMARK                         _______ _______ _______ _____ _____    ______ ____
ROOT
ATOM      1  C   UNL     1      45.243  82.832  38.736  0.00  0.00    +0.114 C 
ATOM      2  N   UNL     1      45.502  81.482  39.196  0.00  0.00    -0.292 N 
ATOM      3  C   UNL     1      45.234  80.344  38.320  0.00  0.00    +0.094 C 
ATOM      4  C   UNL     1      44.673  79.204  39.117  0.00  0.00    +0.048 C 
ATOM      5  C   UNL     1      44.326  79.598  40.532  0.00  0.00    +0.129 C 
ATOM      6  N   UNL     1      45.421  80.278  41.192  0.00  0.00    -0.256 NA
ATOM      7  C   UNL     1      46.007  81.232  40.497  0.00  0.00    +0.127 C 
ENDROOT
BRANCH   7   8
ATOM      8  C   UNL     1      47.093  82.007  41.035  0.00  0.00    +0.034 C 
ATOM      9  C   UNL     1      47.095  82.659  42.162  0.00  0.00    +0.009 C 
BRANCH   9  10
ATOM     10  C   UNL     1      48.340  83.343  42.607  0.00  0.00    +0.030 A 
ATOM     11  C   UNL     1      49.640  83.031  42.307  0.00  0.00    +0.007 A 
ATOM     12  C   UNL     1      50.597  83.817  42.843  0.00  0.00    +0.007 A 
ATOM     13  C   UNL     1      50.191  84.851  43.634  0.00  0.00    +0.035 A 
ATOM     14  S   UNL     1      48.498  84.710  43.617  0.00  0.00    -0.086 S 
ENDBRANCH   9  10
ENDBRANCH   7   8
TORSDOF 2
