REMARK  Name = Pyrimethamine
REMARK  2 active torsions:
REMARK  status: ('A' for Active; 'I' for Inactive)
REMARK    1  A    between atoms: C_2  and  C_3
REMARK    2  A    between atoms: C_4  and  C_11
REMARK                            x       y       z     vdW  Elec       q    Type
REMARK                         _______ _______ _______ _____ _____    ______ ____
ROOT
ATOM      1  C   UNL     1      46.003  80.365  40.658  0.00  0.00    +0.065 A 
ATOM      2  C   UNL     1      46.606  81.563  40.331  0.00  0.00    +0.049 A 
ATOM      3  C   UNL     1      46.226  82.121  39.124  0.00  0.00    +0.174 A 
ATOM      4  N   UNL     1      45.321  81.509  38.335  0.00  0.00    -0.193 NA
ATOM      5  C   UNL     1      44.734  80.340  38.657  0.00  0.00    +0.258 A 
ATOM      6  N   UNL     1      45.099  79.790  39.832  0.00  0.00    -0.215 NA
ATOM      7  N   UNL     1      43.778  79.714  37.804  0.00  0.00    -0.086 NA
ATOM      8  N   UNL     1      46.844  83.359  38.777  0.00  0.00    -0.107 NA
ENDROOT
BRANCH   2   9
ATOM      9  C   UNL     1      47.584  82.212  41.196  0.00  0.00    +0.004 A 
ATOM     10  C   UNL     1      48.935  81.884  41.143  0.00  0.00    +0.001 A 
ATOM     11  C   UNL     1      49.870  82.485  41.951  0.00  0.00    +0.011 A 
ATOM     12  C   UNL     1      49.456  83.448  42.847  0.00  0.00    +0.058 A 
ATOM     13  C   UNL     1      48.138  83.808  42.940  0.00  0.00    +0.011 A 
ATOM     14  C   UNL     1      47.239  83.186  42.117  0.00  0.00    +0.001 A 
ATOM     15 CL   UNL     1      50.663  84.197  43.863  0.00  0.00    -0.082 Cl
ENDBRANCH   2   9
BRANCH   1  17
ATOM     16  C   UNL     1      45.604  78.454  42.097  0.00  0.00    +0.007 C 
ATOM     17  C   UNL     1      46.391  79.737  41.955  0.00  0.00    +0.046 C 
ENDBRANCH   1  17
TORSDOF 2
