REMARK  Name = Pyridoxal_Phosphate
REMARK  4 active torsions:
REMARK  status: ('A' for Active; 'I' for Inactive)
REMARK    1  A    between atoms: C_5  and  C_11
REMARK    2  A    between atoms: C_6  and  C_9
REMARK    3  A    between atoms: C_11  and  O_12
REMARK    4  A    between atoms: O_12  and  P_13
REMARK                            x       y       z     vdW  Elec       q    Type
REMARK                         _______ _______ _______ _____ _____    ______ ____
ROOT
ATOM      1  C   UNL     1      46.819  83.354  38.391  0.00  0.00    +0.056 C 
ATOM      2  C   UNL     1      46.325  82.070  38.967  0.00  0.00    +0.098 A 
ATOM      3  N   UNL     1      45.304  81.473  38.289  0.00  0.00    -0.245 NA
ATOM      4  C   UNL     1      44.812  80.312  38.755  0.00  0.00    +0.097 A 
ATOM      5  C   UNL     1      45.311  79.717  39.891  0.00  0.00    +0.033 A 
ATOM      6  C   UNL     1      46.338  80.317  40.573  0.00  0.00    +0.082 A 
ATOM      7  C   UNL     1      46.867  81.525  40.110  0.00  0.00    +0.212 A 
ATOM      8  O   UNL     1      47.905  82.165  40.768  0.00  0.00    -0.285 OA
ENDROOT
BRANCH   6   9
ATOM      9  C   UNL     1      46.913  79.740  41.778  0.00  0.00    +0.237 C 
ATOM     10  O   UNL     1      48.125  79.923  42.082  0.00  0.00    -0.283 OA
ENDBRANCH   6   9
BRANCH   5  11
ATOM     11  C   UNL     1      44.737  78.443  40.367  0.00  0.00    +0.182 C 
BRANCH  11  12
ATOM     12  O   UNL     1      43.492  78.161  39.758  0.00  0.00    -0.265 OA
BRANCH  12  13
ATOM     13  P   UNL     1      43.188  76.521  40.123  0.00  0.00    +0.533 P 
ATOM     14  O   UNL     1      43.018  76.375  41.609  0.00  0.00    -0.222 OA
ATOM     15  O   UNL     1      44.559  75.645  39.623  0.00  0.00    -0.115 OA
ATOM     16  O   UNL     1      41.849  75.985  39.251  0.00  0.00    -0.115 OA
ENDBRANCH  12  13
ENDBRANCH  11  12
ENDBRANCH   5  11
TORSDOF 4
