REMARK  Name = Pyrimethamine/sulfadoxine
REMARK  7 active torsions:
REMARK  status: ('A' for Active; 'I' for Inactive)
REMARK    1  A    between atoms: C_2  and  C_3
REMARK    2  A    between atoms: C_4  and  C_11
REMARK    3  A    between atoms: O_19  and  C_20
REMARK    4  A    between atoms: C_21  and  N_28
REMARK    5  A    between atoms: C_25  and  O_26
REMARK    6  A    between atoms: N_28  and  S_29
REMARK    7  A    between atoms: S_29  and  C_32
REMARK                            x       y       z     vdW  Elec       q    Type
REMARK                         _______ _______ _______ _____ _____    ______ ____
ROOT
ATOM      1  C   UNL     1      46.519  80.712  40.868  0.00  0.00    +0.065 A 
ATOM      2  C   UNL     1      45.536  80.005  40.232  0.00  0.00    +0.049 A 
ATOM      3  C   UNL     1      45.078  80.498  39.013  0.00  0.00    +0.174 A 
ATOM      4  N   UNL     1      45.580  81.630  38.475  0.00  0.00    -0.193 NA
ATOM      5  C   UNL     1      46.547  82.319  39.109  0.00  0.00    +0.258 A 
ATOM      6  N   UNL     1      46.999  81.855  40.286  0.00  0.00    -0.215 NA
ATOM      7  N   UNL     1      47.089  83.517  38.565  0.00  0.00    -0.086 NA
ATOM      8  N   UNL     1      44.061  79.739  38.371  0.00  0.00    -0.107 NA
ENDROOT
BRANCH   2   9
ATOM      9  C   UNL     1      44.968  78.782  40.754  0.00  0.00    +0.004 A 
ATOM     10  C   UNL     1      44.133  78.694  41.823  0.00  0.00    +0.001 A 
ATOM     11  C   UNL     1      43.616  77.490  42.247  0.00  0.00    +0.011 A 
ATOM     12  C   UNL     1      43.916  76.297  41.609  0.00  0.00    +0.058 A 
ATOM     13  C   UNL     1      44.771  76.365  40.509  0.00  0.00    +0.011 A 
ATOM     14  C   UNL     1      45.276  77.580  40.103  0.00  0.00    +0.001 A 
ATOM     15 CL   UNL     1      43.260  74.764  42.139  0.00  0.00    -0.082 Cl
ENDBRANCH   2   9
BRANCH   1  17
ATOM     16  C   UNL     1      47.904  81.418  42.726  0.00  0.00    +0.007 C 
ATOM     17  C   UNL     1      47.049  80.278  42.166  0.00  0.00    +0.046 C 
ENDBRANCH   1  17
TORSDOF 2
REMARK  Name = Pyrimethamine/sulfadoxine
REMARK  7 active torsions:
REMARK  status: ('A' for Active; 'I' for Inactive)
REMARK    1  A    between atoms: C_2  and  C_3
REMARK    2  A    between atoms: C_4  and  C_11
REMARK    3  A    between atoms: O_19  and  C_20
REMARK    4  A    between atoms: C_21  and  N_28
REMARK    5  A    between atoms: C_25  and  O_26
REMARK    6  A    between atoms: N_28  and  S_29
REMARK    7  A    between atoms: S_29  and  C_32
REMARK                            x       y       z     vdW  Elec       q    Type
REMARK                         _______ _______ _______ _____ _____    ______ ____
ROOT
ATOM      1  N   UNL     1      46.865  78.921  41.508  0.00  0.00    -0.074 NA
ENDROOT
BRANCH   1   3
ATOM      2  C   UNL     1      45.329  77.439  40.363  0.00  0.00    +0.227 A 
ATOM      3  C   UNL     1      45.543  78.554  41.161  0.00  0.00    +0.212 A 
ATOM      4  N   UNL     1      44.470  79.240  41.570  0.00  0.00    -0.203 NA
ATOM      5  C   UNL     1      43.222  78.886  41.238  0.00  0.00    +0.203 A 
ATOM      6  N   UNL     1      43.015  77.807  40.466  0.00  0.00    -0.187 NA
ATOM      7  C   UNL     1      44.052  77.061  40.012  0.00  0.00    +0.265 A 
BRANCH   2   9
ATOM      8  C   UNL     1      46.428  76.261  38.579  0.00  0.00    +0.253 C 
ATOM      9  O   UNL     1      46.423  76.706  39.922  0.00  0.00    -0.464 OA
ENDBRANCH   2   9
BRANCH   7  10
ATOM     10  O   UNL     1      43.897  75.952  39.222  0.00  0.00    -0.454 OA
ATOM     11  C   UNL     1      42.672  75.293  39.102  0.00  0.00    +0.254 C 
ENDBRANCH   7  10
ENDBRANCH   1   3
BRANCH   1  12
ATOM     12  S   UNL     1      47.231  80.307  42.455  0.00  0.00    +0.094 S 
ATOM     13  O   UNL     1      46.092  81.287  42.343  0.00  0.00    -0.148 OA
ATOM     14  O   UNL     1      47.356  79.966  43.912  0.00  0.00    -0.148 OA
BRANCH  12  15
ATOM     15  C   UNL     1      48.733  81.052  41.965  0.00  0.00    +0.127 A 
ATOM     16  C   UNL     1      49.755  81.189  42.859  0.00  0.00    +0.022 A 
ATOM     17  C   UNL     1      50.925  81.791  42.415  0.00  0.00    +0.019 A 
ATOM     18  C   UNL     1      51.031  82.225  41.123  0.00  0.00    +0.089 A 
ATOM     19  C   UNL     1      49.980  82.080  40.216  0.00  0.00    +0.019 A 
ATOM     20  C   UNL     1      48.822  81.489  40.639  0.00  0.00    +0.022 A 
ATOM     21  N   UNL     1      52.235  82.832  40.708  0.00  0.00    -0.128 NA
ENDBRANCH  12  15
ENDBRANCH   1  12
TORSDOF 5
