REMARK  Name = Pyronaridine
REMARK  7 active torsions:
REMARK  status: ('A' for Active; 'I' for Inactive)
REMARK    1  A    between atoms: O_2  and  C_3
REMARK    2  A    between atoms: C_6  and  N_18
REMARK    3  A    between atoms: N_18  and  C_19
REMARK    4  A    between atoms: C_21  and  C_32
REMARK    5  A    between atoms: C_23  and  C_25
REMARK    6  A    between atoms: C_25  and  N_26
REMARK    7  A    between atoms: C_32  and  N_33
REMARK                            x       y       z     vdW  Elec       q    Type
REMARK                         _______ _______ _______ _____ _____    ______ ____
ROOT
ATOM      1  C   UNL     1      45.310  79.004  41.707  0.00  0.00    +0.070 A 
ATOM      2  C   UNL     1      44.647  79.385  40.582  0.00  0.00    +0.017 A 
ATOM      3  C   UNL     1      43.816  78.523  39.854  0.00  0.00    +0.034 A 
ATOM      4  C   UNL     1      43.688  77.245  40.324  0.00  0.00    +0.190 A 
ATOM      5  C   UNL     1      44.328  76.787  41.453  0.00  0.00    +0.034 A 
ATOM      6  C   UNL     1      45.145  77.708  42.134  0.00  0.00    +0.017 A 
ATOM      7  O   UNL     1      42.867  76.363  39.628  0.00  0.00    -0.287 OA
ENDROOT
BRANCH   1   8
ATOM      8  N   UNL     1      46.154  79.871  42.456  0.00  0.00    -0.211 NA
BRANCH   8  12
ATOM      9  C   UNL     1      45.478  81.006  38.608  0.00  0.00    +0.225 A 
ATOM     10  N   UNL     1      45.743  80.671  39.882  0.00  0.00    -0.209 NA
ATOM     11  C   UNL     1      46.722  81.282  40.573  0.00  0.00    +0.117 A 
ATOM     12  C   UNL     1      46.937  80.888  41.874  0.00  0.00    +0.091 A 
ATOM     13  C   UNL     1      47.943  81.525  42.571  0.00  0.00    +0.034 A 
ATOM     14  C   UNL     1      48.696  82.515  41.974  0.00  0.00    +0.083 A 
ATOM     15  C   UNL     1      49.696  83.150  42.662  0.00  0.00    +0.031 A 
ATOM     16  C   UNL     1      49.977  82.815  43.974  0.00  0.00    +0.059 A 
ATOM     17  C   UNL     1      49.211  81.822  44.550  0.00  0.00    +0.012 A 
ATOM     18  C   UNL     1      48.199  81.171  43.871  0.00  0.00    +0.004 A 
ATOM     19 CL   UNL     1      51.255  83.631  44.850  0.00  0.00    -0.082 Cl
ATOM     20  N   UNL     1      48.453  82.868  40.704  0.00  0.00    -0.244 NA
ATOM     21  C   UNL     1      47.492  82.288  39.980  0.00  0.00    +0.100 A 
ATOM     22  C   UNL     1      47.256  82.666  38.675  0.00  0.00    +0.025 A 
ATOM     23  C   UNL     1      46.242  82.007  38.014  0.00  0.00    +0.059 A 
BRANCH   9  25
ATOM     24  C   UNL     1      43.284  79.897  38.424  0.00  0.00    +0.254 C 
ATOM     25  O   UNL     1      44.470  80.400  37.846  0.00  0.00    -0.456 OA
ENDBRANCH   9  25
ENDBRANCH   8  12
ENDBRANCH   1   8
BRANCH   5  26
ATOM     26  C   UNL     1      44.235  75.387  41.938  0.00  0.00    +0.102 C 
BRANCH  26  27
ATOM     27  N   UNL     1      44.852  75.067  43.135  0.00  0.00    -0.269 NA
ATOM     28  C   UNL     1      45.893  74.193  43.336  0.00  0.00    +0.072 C 
ATOM     29  C   UNL     1      45.419  73.291  44.500  0.00  0.00    +0.019 C 
ATOM     30  C   UNL     1      44.625  74.253  45.329  0.00  0.00    +0.019 C 
ATOM     31  C   UNL     1      43.956  75.095  44.249  0.00  0.00    +0.072 C 
ENDBRANCH  26  27
ENDBRANCH   5  26
BRANCH   3  32
ATOM     32  C   UNL     1      43.108  78.980  38.661  0.00  0.00    +0.102 C 
BRANCH  32  33
ATOM     33  N   UNL     1      41.776  78.570  38.484  0.00  0.00    -0.269 NA
ATOM     34  C   UNL     1      41.458  77.192  38.410  0.00  0.00    +0.072 C 
ATOM     35  C   UNL     1      40.008  77.132  37.900  0.00  0.00    +0.019 C 
ATOM     36  C   UNL     1      39.932  78.364  37.020  0.00  0.00    +0.019 C 
ATOM     37  C   UNL     1      41.252  79.079  37.234  0.00  0.00    +0.072 C 
ENDBRANCH  32  33
ENDBRANCH   3  32
TORSDOF 7
