REMARK  Name = Pyrvinium
REMARK  4 active torsions:
REMARK  status: ('A' for Active; 'I' for Inactive)
REMARK    1  A    between atoms: C_4  and  C_14
REMARK    2  A    between atoms: N_6  and  C_7
REMARK    3  A    between atoms: C_15  and  C_16
REMARK    4  A    between atoms: C_23  and  N_26
REMARK                            x       y       z     vdW  Elec       q    Type
REMARK                         _______ _______ _______ _____ _____    ______ ____
ROOT
ATOM      1  C   UNL     1      46.692  80.599  41.521  0.00  0.00    +0.003 C 
ATOM      2  C   UNL     1      45.593  80.536  40.916  0.00  0.00    +0.017 C 
ENDROOT
BRANCH   2   3
ATOM      3  C   UNL     1      44.581  79.537  40.646  0.00  0.00    +0.060 A 
ATOM      4  N   UNL     1      43.877  79.593  39.464  0.00  0.00    -0.325 N 
ATOM      5  C   UNL     1      43.014  78.656  39.061  0.00  0.00    +0.060 A 
ATOM      6  C   UNL     1      42.757  77.536  39.821  0.00  0.00    +0.017 A 
ATOM      7  C   UNL     1      43.439  77.440  41.013  0.00  0.00    +0.003 A 
ATOM      8  C   UNL     1      44.330  78.422  41.409  0.00  0.00    +0.017 A 
ATOM      9  C   UNL     1      41.871  76.561  39.410  0.00  0.00    +0.016 A 
ATOM     10  C   UNL     1      41.185  76.635  38.218  0.00  0.00    +0.048 A 
ATOM     11  C   UNL     1      41.438  77.750  37.453  0.00  0.00    +0.016 A 
ATOM     12  C   UNL     1      42.326  78.733  37.860  0.00  0.00    +0.018 A 
ATOM     13  C   UNL     1      44.085  80.775  38.657  0.00  0.00    +0.130 C 
BRANCH  10  14
ATOM     14  N   UNL     1      40.274  75.627  37.799  0.00  0.00    -0.304 N 
ATOM     15  C   UNL     1      40.202  74.385  38.566  0.00  0.00    +0.112 C 
ATOM     16  C   UNL     1      39.423  75.781  36.653  0.00  0.00    +0.112 C 
ENDBRANCH  10  14
ENDBRANCH   2   3
BRANCH   1  20
ATOM     17  C   UNL     1      48.503  84.998  43.160  0.00  0.00    +0.050 C 
ATOM     18  C   UNL     1      48.429  83.581  42.658  0.00  0.00    +0.041 A 
ATOM     19  C   UNL     1      47.257  82.929  42.326  0.00  0.00    +0.014 A 
ATOM     20  C   UNL     1      47.567  81.670  41.915  0.00  0.00    +0.013 A 
ATOM     21  C   UNL     1      48.977  81.558  42.000  0.00  0.00    +0.041 A 
ATOM     22  N   UNL     1      49.425  82.725  42.447  0.00  0.00    -0.314 N 
ATOM     23  C   UNL     1      49.732  80.336  41.644  0.00  0.00    +0.050 C 
BRANCH  22  24
ATOM     24  C   UNL     1      50.809  83.024  42.674  0.00  0.00    +0.063 A 
ATOM     25  C   UNL     1      51.593  83.469  41.639  0.00  0.00    +0.017 A 
ATOM     26  C   UNL     1      52.910  83.748  41.880  0.00  0.00    +0.001 A 
ATOM     27  C   UNL     1      53.473  83.596  43.132  0.00  0.00    +0.000 A 
ATOM     28  C   UNL     1      52.673  83.147  44.164  0.00  0.00    +0.001 A 
ATOM     29  C   UNL     1      51.350  82.861  43.943  0.00  0.00    +0.017 A 
ENDBRANCH  22  24
ENDBRANCH   1  20
TORSDOF 4
