REMARK  Name = Quercetin
REMARK  1 active torsions:
REMARK  status: ('A' for Active; 'I' for Inactive)
REMARK    1  A    between atoms: C_6  and  C_7
REMARK                            x       y       z     vdW  Elec       q    Type
REMARK                         _______ _______ _______ _____ _____    ______ ____
ROOT
ATOM      1  C   UNL     1      47.456  81.237  40.790  0.00  0.00    +0.187 A 
ATOM      2  C   UNL     1      46.897  81.963  39.770  0.00  0.00    +0.268 A 
ATOM      3  C   UNL     1      45.716  81.477  39.184  0.00  0.00    +0.243 A 
ATOM      4  O   UNL     1      45.182  82.126  38.243  0.00  0.00    -0.283 OA
ATOM      5  C   UNL     1      45.141  80.309  39.624  0.00  0.00    +0.116 A 
ATOM      6  C   UNL     1      43.985  79.786  39.088  0.00  0.00    +0.205 A 
ATOM      7  C   UNL     1      43.428  78.605  39.553  0.00  0.00    +0.084 A 
ATOM      8  C   UNL     1      44.032  77.916  40.581  0.00  0.00    +0.202 A 
ATOM      9  C   UNL     1      45.184  78.444  41.110  0.00  0.00    +0.080 A 
ATOM     10  C   UNL     1      45.760  79.637  40.652  0.00  0.00    +0.155 A 
ATOM     11  O   UNL     1      46.840  80.108  41.166  0.00  0.00    -0.450 OA
ATOM     12  O   UNL     1      43.480  76.718  41.062  0.00  0.00    -0.286 OA
ATOM     13  O   UNL     1      43.397  80.510  38.044  0.00  0.00    -0.286 OA
ATOM     14  O   UNL     1      47.431  83.139  39.289  0.00  0.00    -0.280 OA
ENDROOT
BRANCH   1  20
ATOM     15  C   UNL     1      48.859  81.165  42.784  0.00  0.00    +0.007 A 
ATOM     16  C   UNL     1      50.002  81.478  43.527  0.00  0.00    +0.045 A 
ATOM     17  C   UNL     1      50.965  82.251  42.946  0.00  0.00    +0.234 A 
ATOM     18  C   UNL     1      50.809  82.703  41.671  0.00  0.00    +0.234 A 
ATOM     19  C   UNL     1      49.647  82.371  40.947  0.00  0.00    +0.049 A 
ATOM     20  C   UNL     1      48.669  81.605  41.493  0.00  0.00    +0.041 A 
ATOM     21  O   UNL     1      51.791  83.495  41.070  0.00  0.00    -0.283 OA
ATOM     22  O   UNL     1      52.120  82.592  43.636  0.00  0.00    -0.283 OA
ENDBRANCH   1  20
TORSDOF 1
