REMARK  Name = Quetiapine
REMARK  5 active torsions:
REMARK  status: ('A' for Active; 'I' for Inactive)
REMARK    1  A    between atoms: N_6  and  C_7
REMARK    2  A    between atoms: C_7  and  C_8
REMARK    3  A    between atoms: C_8  and  O_9
REMARK    4  A    between atoms: O_9  and  C_10
REMARK    5  A    between atoms: C_10  and  C_11
REMARK                            x       y       z     vdW  Elec       q    Type
REMARK                         _______ _______ _______ _____ _____    ______ ____
ROOT
ATOM      1  C   UNL     1      41.720  76.558  38.531  0.00  0.00    +0.094 C 
ATOM      2  C   UNL     1      42.995  76.982  39.248  0.00  0.00    +0.109 C 
ATOM      3  N   UNL     1      43.496  78.206  38.685  0.00  0.00    -0.290 N 
ATOM      4  C   UNL     1      43.115  78.766  37.434  0.00  0.00    +0.109 C 
ATOM      5  C   UNL     1      41.696  78.401  37.048  0.00  0.00    +0.094 C 
ATOM      6  N   UNL     1      41.020  77.746  38.161  0.00  0.00    -0.268 NA
ATOM      7  C   UNL     1      44.447  78.932  39.483  0.00  0.00    +0.132 C 
ATOM      8  N   UNL     1      44.828  80.059  38.992  0.00  0.00    -0.230 NA
ATOM      9  C   UNL     1      45.725  81.062  39.436  0.00  0.00    +0.089 A 
ATOM     10  C   UNL     1      46.187  81.854  38.375  0.00  0.00    +0.020 A 
ATOM     11  C   UNL     1      47.063  82.889  38.563  0.00  0.00    +0.002 A 
ATOM     12  C   UNL     1      47.500  83.151  39.857  0.00  0.00    +0.001 A 
ATOM     13  C   UNL     1      47.077  82.404  40.925  0.00  0.00    +0.008 A 
ATOM     14  C   UNL     1      46.188  81.366  40.681  0.00  0.00    +0.047 A 
ATOM     15  S   UNL     1      45.771  80.539  42.217  0.00  0.00    -0.085 S 
ATOM     16  C   UNL     1      45.409  78.848  41.886  0.00  0.00    +0.032 A 
ATOM     17  C   UNL     1      45.741  78.059  42.972  0.00  0.00    +0.007 A 
ATOM     18  C   UNL     1      45.542  76.711  42.939  0.00  0.00    +0.001 A 
ATOM     19  C   UNL     1      44.998  76.162  41.791  0.00  0.00    +0.000 A 
ATOM     20  C   UNL     1      44.664  76.969  40.698  0.00  0.00    +0.003 A 
ATOM     21  C   UNL     1      44.866  78.335  40.727  0.00  0.00    +0.038 A 
ENDROOT
BRANCH   6  22
ATOM     22  C   UNL     1      39.642  77.573  37.856  0.00  0.00    +0.105 C 
BRANCH  22  23
ATOM     23  C   UNL     1      39.224  76.135  37.631  0.00  0.00    +0.160 C 
BRANCH  23  24
ATOM     24  O   UNL     1      38.956  75.934  36.275  0.00  0.00    -0.350 OA
BRANCH  24  25
ATOM     25  C   UNL     1      39.336  74.672  35.888  0.00  0.00    +0.178 C 
BRANCH  25  26
ATOM     26  C   UNL     1      38.691  74.301  34.572  0.00  0.00    +0.214 C 
ATOM     27  O   UNL     1      37.487  73.639  34.811  0.00  0.00    -0.218 OA
ENDBRANCH  25  26
ENDBRANCH  24  25
ENDBRANCH  23  24
ENDBRANCH  22  23
ENDBRANCH   6  22
TORSDOF 5
