REMARK  Name = Quinupristin
REMARK  10 active torsions:
REMARK  status: ('A' for Active; 'I' for Inactive)
REMARK    1  A    between atoms: C_2  and  C_3
REMARK    2  A    between atoms: C_14  and  C_63
REMARK    3  A    between atoms: C_19  and  C_53
REMARK    4  A    between atoms: C_27  and  C_47
REMARK    5  A    between atoms: C_32  and  N_36
REMARK    6  A    between atoms: C_37  and  C_39
REMARK    7  A    between atoms: C_53  and  S_54
REMARK    8  A    between atoms: S_54  and  C_55
REMARK    9  A    between atoms: C_63  and  C_64
REMARK   10  A    between atoms: C_67  and  N_70
REMARK                            x       y       z     vdW  Elec       q    Type
REMARK                         _______ _______ _______ _____ _____    ______ ____
ROOT
ATOM      1  C   UNL     1      42.234  73.926  40.591  0.00  0.00    +0.171 C 
ATOM      2  C   UNL     1      42.921  73.406  41.791  0.00  0.00    +0.246 C 
ATOM      3  O   UNL     1      43.490  72.258  41.556  0.00  0.00    -0.273 OA
ATOM      4  N   UNL     1      43.067  73.896  43.092  0.00  0.00    -0.272 N 
ATOM      5  C   UNL     1      42.511  73.397  44.388  0.00  0.00    +0.094 C 
ATOM      6  C   UNL     1      41.875  74.683  44.868  0.00  0.00    +0.024 C 
ATOM      7  C   UNL     1      42.786  75.805  44.318  0.00  0.00    +0.031 C 
ATOM      8  C   UNL     1      43.817  75.018  43.625  0.00  0.00    +0.152 C 
ATOM      9  C   UNL     1      44.845  75.583  42.835  0.00  0.00    +0.244 C 
ATOM     10  O   UNL     1      45.395  74.724  42.029  0.00  0.00    -0.273 OA
ATOM     11  N   UNL     1      45.418  76.846  42.714  0.00  0.00    -0.270 N 
ATOM     12  C   UNL     1      44.792  78.136  42.566  0.00  0.00    +0.156 C 
ATOM     13  C   UNL     1      45.352  78.832  41.334  0.00  0.00    +0.244 C 
ATOM     14  O   UNL     1      46.577  79.132  41.353  0.00  0.00    -0.273 OA
ATOM     15  N   UNL     1      44.614  79.161  40.194  0.00  0.00    -0.271 N 
ATOM     16  C   UNL     1      45.254  79.131  38.879  0.00  0.00    +0.102 C 
ATOM     17  C   UNL     1      45.120  80.393  38.104  0.00  0.00    +0.088 C 
ATOM     18  C   UNL     1      43.700  80.845  38.143  0.00  0.00    +0.155 C 
ATOM     19  O   UNL     1      43.118  81.245  37.143  0.00  0.00    -0.296 OA
ATOM     20  C   UNL     1      43.019  80.788  39.460  0.00  0.00    +0.094 C 
ATOM     21  C   UNL     1      43.197  79.531  40.215  0.00  0.00    +0.161 C 
ATOM     22  C   UNL     1      42.445  78.358  39.735  0.00  0.00    +0.261 C 
ATOM     23  O   UNL     1      43.106  77.260  39.807  0.00  0.00    -0.272 OA
ATOM     24  N   UNL     1      41.151  78.260  39.226  0.00  0.00    -0.190 NA
ATOM     25  C   UNL     1      40.587  78.808  38.009  0.00  0.00    +0.216 C 
ATOM     26  C   UNL     1      39.879  77.694  37.266  0.00  0.00    +0.341 C 
ATOM     27  O   UNL     1      38.860  78.035  36.617  0.00  0.00    -0.248 OA
ATOM     28  O   UNL     1      40.321  76.418  37.305  0.00  0.00    -0.449 OA
ATOM     29  C   UNL     1      41.518  75.849  36.890  0.00  0.00    +0.198 C 
ATOM     30  C   UNL     1      41.537  74.394  37.401  0.00  0.00    +0.213 C 
ATOM     31  C   UNL     1      42.812  74.143  38.111  0.00  0.00    +0.265 C 
ATOM     32  O   UNL     1      43.801  73.789  37.371  0.00  0.00    -0.271 OA
ATOM     33  N   UNL     1      43.072  74.247  39.478  0.00  0.00    -0.196 NA
ATOM     34  C   UNL     1      41.618  75.754  35.370  0.00  0.00    +0.050 C 
ATOM     35  C   UNL     1      46.914  76.961  42.670  0.00  0.00    +0.115 C 
ENDROOT
BRANCH  25  36
ATOM     36  C   UNL     1      39.600  79.889  38.326  0.00  0.00    +0.008 A 
ATOM     37  C   UNL     1      39.745  81.096  37.690  0.00  0.00    -0.002 A 
ATOM     38  C   UNL     1      38.858  82.136  37.948  0.00  0.00    -0.000 A 
ATOM     39  C   UNL     1      37.829  81.953  38.847  0.00  0.00    -0.000 A 
ATOM     40  C   UNL     1      37.667  80.740  39.499  0.00  0.00    -0.000 A 
ATOM     41  C   UNL     1      38.575  79.741  39.207  0.00  0.00    -0.002 A 
ENDBRANCH  25  36
BRANCH  30  42
ATOM     42  N   UNL     1      41.501  73.471  36.286  0.00  0.00    -0.189 NA
ATOM     43  C   UNL     1      40.421  72.614  36.092  0.00  0.00    +0.286 C 
ATOM     44  O   UNL     1      40.669  71.360  36.178  0.00  0.00    -0.267 OA
BRANCH  43  45
ATOM     45  C   UNL     1      39.050  72.965  35.805  0.00  0.00    +0.175 A 
ATOM     46  C   UNL     1      38.440  72.737  34.596  0.00  0.00    +0.218 A 
ATOM     47  C   UNL     1      37.113  73.109  34.369  0.00  0.00    +0.045 A 
ATOM     48  C   UNL     1      36.391  73.714  35.357  0.00  0.00    +0.024 A 
ATOM     49  C   UNL     1      37.029  73.937  36.580  0.00  0.00    +0.099 A 
ATOM     50  N   UNL     1      38.294  73.574  36.775  0.00  0.00    -0.236 NA
ATOM     51  O   UNL     1      39.128  72.124  33.554  0.00  0.00    -0.285 OA
ENDBRANCH  43  45
ENDBRANCH  30  42
BRANCH   1  53
ATOM     52  C   UNL     1      41.292  75.413  42.361  0.00  0.00    +0.002 C 
ATOM     53  C   UNL     1      41.167  74.944  40.906  0.00  0.00    +0.031 C 
ENDBRANCH   1  53
BRANCH  17  54
ATOM     54  C   UNL     1      45.969  81.536  38.612  0.00  0.00    +0.067 C 
BRANCH  54  55
ATOM     55  S   UNL     1      47.725  81.250  38.402  0.00  0.00    -0.139 S 
BRANCH  55  56
ATOM     56  C   UNL     1      48.134  79.647  39.129  0.00  0.00    +0.064 C 
ATOM     57  C   UNL     1      49.422  79.072  38.574  0.00  0.00    +0.083 C 
ATOM     58  N   UNL     1      50.240  78.517  39.643  0.00  0.00    -0.272 NA
ATOM     59  C   UNL     1      50.803  79.608  40.445  0.00  0.00    +0.072 C 
ATOM     60  C   UNL     1      49.677  80.569  40.781  0.00  0.00    +0.018 C 
ATOM     61  C   UNL     1      48.343  79.856  40.622  0.00  0.00    +0.014 C 
ATOM     62  C   UNL     1      48.409  78.465  41.224  0.00  0.00    +0.018 C 
ATOM     63  C   UNL     1      49.480  77.682  40.539  0.00  0.00    +0.072 C 
ENDBRANCH  55  56
ENDBRANCH  54  55
ENDBRANCH  17  54
BRANCH  12  64
ATOM     64  C   UNL     1      45.128  79.055  43.685  0.00  0.00    +0.056 C 
BRANCH  64  65
ATOM     65  C   UNL     1      46.363  79.831  43.604  0.00  0.00    -0.020 A 
ATOM     66  C   UNL     1      46.349  81.224  43.468  0.00  0.00    -0.003 A 
ATOM     67  C   UNL     1      47.518  81.944  43.388  0.00  0.00    +0.014 A 
ATOM     68  C   UNL     1      48.759  81.349  43.435  0.00  0.00    +0.048 A 
ATOM     69  C   UNL     1      48.777  79.980  43.569  0.00  0.00    +0.014 A 
ATOM     70  C   UNL     1      47.612  79.253  43.650  0.00  0.00    -0.003 A 
BRANCH  68  71
ATOM     71  N   UNL     1      49.978  82.047  43.358  0.00  0.00    -0.304 N 
ATOM     72  C   UNL     1      50.263  82.886  42.225  0.00  0.00    +0.112 C 
ATOM     73  C   UNL     1      50.954  81.931  44.412  0.00  0.00    +0.112 C 
ENDBRANCH  68  71
ENDBRANCH  64  65
ENDBRANCH  12  64
TORSDOF 10
