REMARK  Name = Quinethazone
REMARK  2 active torsions:
REMARK  status: ('A' for Active; 'I' for Inactive)
REMARK    1  A    between atoms: C_2  and  C_3
REMARK    2  A    between atoms: C_8  and  S_14
REMARK                            x       y       z     vdW  Elec       q    Type
REMARK                         _______ _______ _______ _____ _____    ______ ____
ROOT
ATOM      1  C   UNL     1      48.023  82.060  40.097  0.00  0.00    +0.187 C 
ATOM      2  N   UNL     1      47.684  80.772  40.608  0.00  0.00    -0.217 NA
ATOM      3  C   UNL     1      46.465  80.091  40.343  0.00  0.00    +0.072 A 
ATOM      4  C   UNL     1      46.051  78.975  41.042  0.00  0.00    +0.029 A 
ATOM      5  C   UNL     1      44.846  78.335  40.751  0.00  0.00    +0.078 A 
ATOM      6  C   UNL     1      44.031  78.808  39.745  0.00  0.00    +0.136 A 
ATOM      7  C   UNL     1      44.457  79.923  39.055  0.00  0.00    +0.027 A 
ATOM      8  C   UNL     1      45.651  80.563  39.339  0.00  0.00    +0.071 A 
ATOM      9  C   UNL     1      46.100  81.743  38.608  0.00  0.00    +0.268 C 
ATOM     10  O   UNL     1      45.385  82.205  37.683  0.00  0.00    -0.268 OA
ATOM     11  N   UNL     1      47.326  82.411  38.889  0.00  0.00    -0.181 NA
ATOM     12 CL   UNL     1      44.334  76.916  41.650  0.00  0.00    -0.081 Cl
ENDROOT
BRANCH   6  13
ATOM     13  S   UNL     1      42.525  77.983  39.403  0.00  0.00    +0.094 S 
ATOM     14  O   UNL     1      42.711  76.484  39.391  0.00  0.00    -0.150 OA
ATOM     15  O   UNL     1      41.500  78.299  40.455  0.00  0.00    -0.150 OA
ATOM     16  N   UNL     1      41.895  78.470  37.859  0.00  0.00    +0.039 NA
ENDBRANCH   6  13
BRANCH   1  18
ATOM     17  C   UNL     1      49.040  83.365  41.974  0.00  0.00    +0.004 C 
ATOM     18  C   UNL     1      47.800  83.159  41.131  0.00  0.00    +0.044 C 
ENDBRANCH   1  18
TORSDOF 2
