REMARK  Name = Quinestrol
REMARK  3 active torsions:
REMARK  status: ('A' for Active; 'I' for Inactive)
REMARK    1  A    between atoms: C_10  and  C_11
REMARK    2  A    between atoms: C_20  and  O_22
REMARK    3  A    between atoms: O_22  and  C_23
REMARK                            x       y       z     vdW  Elec       q    Type
REMARK                         _______ _______ _______ _____ _____    ______ ____
ROOT
ATOM      1  C   UNL     1      50.443  82.049  40.920  0.00  0.00    +0.003 C 
ATOM      2  C   UNL     1      49.383  82.347  41.966  0.00  0.00    +0.037 C 
ATOM      3  C   UNL     1      49.068  81.040  42.639  0.00  0.00    +0.004 C 
ATOM      4  C   UNL     1      48.054  80.242  41.858  0.00  0.00    +0.004 C 
ATOM      5  C   UNL     1      46.805  81.036  41.584  0.00  0.00    +0.022 C 
ATOM      6  C   UNL     1      47.003  82.397  41.048  0.00  0.00    +0.004 C 
ATOM      7  C   UNL     1      48.240  83.130  41.483  0.00  0.00    +0.004 C 
ATOM      8  C   UNL     1      47.952  84.217  42.510  0.00  0.00    +0.004 C 
ATOM      9  C   UNL     1      48.977  84.077  43.605  0.00  0.00    +0.043 C 
ATOM     10  C   UNL     1      50.074  83.325  42.921  0.00  0.00    +0.180 C 
ATOM     11  O   UNL     1      50.728  84.253  42.073  0.00  0.00    -0.212 OA
ATOM     12  C   UNL     1      46.787  82.592  39.581  0.00  0.00    +0.005 C 
ATOM     13  C   UNL     1      46.856  81.282  38.842  0.00  0.00    +0.026 C 
ATOM     14  C   UNL     1      45.828  80.405  39.453  0.00  0.00    -0.023 A 
ATOM     15  C   UNL     1      45.800  80.274  40.843  0.00  0.00    -0.026 A 
ATOM     16  C   UNL     1      44.848  79.470  41.374  0.00  0.00    -0.001 A 
ATOM     17  C   UNL     1      43.923  78.795  40.569  0.00  0.00    +0.037 A 
ATOM     18  C   UNL     1      43.964  78.935  39.210  0.00  0.00    +0.138 A 
ATOM     19  C   UNL     1      44.934  79.753  38.656  0.00  0.00    +0.032 A 
ENDROOT
BRANCH  10  20
ATOM     20  C   UNL     1      50.995  82.679  43.816  0.00  0.00    -0.049 C 
ATOM     21  C   UNL     1      51.763  82.128  44.569  0.00  0.00    -0.012 C 
ENDBRANCH  10  20
BRANCH  18  22
ATOM     22  O   UNL     1      43.064  78.286  38.353  0.00  0.00    -0.479 OA
BRANCH  22  23
ATOM     23  C   UNL     1      42.249  77.209  38.669  0.00  0.00    +0.166 C 
ATOM     24  C   UNL     1      42.264  76.240  37.493  0.00  0.00    +0.044 C 
ATOM     25  C   UNL     1      40.896  76.326  36.862  0.00  0.00    +0.004 C 
ATOM     26  C   UNL     1      40.357  77.663  37.361  0.00  0.00    +0.004 C 
ATOM     27  C   UNL     1      40.786  77.605  38.814  0.00  0.00    +0.044 C 
ENDBRANCH  22  23
ENDBRANCH  18  22
TORSDOF 3
