REMARK  Name = Quinine
REMARK  4 active torsions:
REMARK  status: ('A' for Active; 'I' for Inactive)
REMARK    1  A    between atoms: O_2  and  C_3
REMARK    2  A    between atoms: C_6  and  C_13
REMARK    3  A    between atoms: C_13  and  C_14
REMARK    4  A    between atoms: C_21  and  C_22
REMARK                            x       y       z     vdW  Elec       q    Type
REMARK                         _______ _______ _______ _____ _____    ______ ____
ROOT
ATOM      1  C   UNL     1      44.207  78.595  40.140  0.00  0.00    +0.139 A 
ATOM      2  C   UNL     1      45.287  79.277  40.675  0.00  0.00    +0.038 A 
ATOM      3  C   UNL     1      45.772  80.406  40.070  0.00  0.00    +0.019 A 
ATOM      4  C   UNL     1      46.862  81.084  40.626  0.00  0.00    +0.012 A 
ATOM      5  C   UNL     1      47.270  82.209  39.944  0.00  0.00    +0.019 A 
ATOM      6  C   UNL     1      46.692  82.686  38.796  0.00  0.00    +0.099 A 
ATOM      7  N   UNL     1      45.650  82.018  38.285  0.00  0.00    -0.244 NA
ATOM      8  C   UNL     1      45.206  80.911  38.905  0.00  0.00    +0.081 A 
ATOM      9  C   UNL     1      44.120  80.204  38.391  0.00  0.00    +0.022 A 
ATOM     10  C   UNL     1      43.626  79.069  38.990  0.00  0.00    +0.038 A 
ENDROOT
BRANCH   1  12
ATOM     11  C   UNL     1      44.589  76.941  41.860  0.00  0.00    +0.252 C 
ATOM     12  O   UNL     1      43.783  77.468  40.813  0.00  0.00    -0.471 OA
ENDBRANCH   1  12
BRANCH   4  13
ATOM     13  C   UNL     1      47.550  80.620  41.860  0.00  0.00    +0.189 C 
ATOM     14  O   UNL     1      46.782  80.639  42.994  0.00  0.00    -0.217 OA
BRANCH  13  15
ATOM     15  C   UNL     1      48.942  81.135  42.021  0.00  0.00    +0.092 C 
ATOM     16  C   UNL     1      49.075  81.889  43.318  0.00  0.00    +0.019 C 
ATOM     17  C   UNL     1      50.270  82.835  43.123  0.00  0.00    +0.008 C 
ATOM     18  C   UNL     1      51.261  82.197  42.142  0.00  0.00    +0.018 C 
ATOM     19  C   UNL     1      50.640  82.165  40.757  0.00  0.00    +0.072 C 
ATOM     20  N   UNL     1      49.187  82.105  40.955  0.00  0.00    -0.271 NA
ATOM     21  C   UNL     1      48.748  83.431  41.342  0.00  0.00    +0.076 C 
ATOM     22  C   UNL     1      49.710  84.033  42.376  0.00  0.00    +0.038 C 
BRANCH  22  23
ATOM     23  C   UNL     1      48.989  84.868  43.373  0.00  0.00    -0.025 C 
ATOM     24  C   UNL     1      47.952  84.375  44.033  0.00  0.00    -0.005 C 
ENDBRANCH  22  23
ENDBRANCH  13  15
ENDBRANCH   4  13
TORSDOF 4
