REMARK  Name = Quinapril
REMARK  10 active torsions:
REMARK  status: ('A' for Active; 'I' for Inactive)
REMARK    1  A    between atoms: C_2  and  O_3
REMARK    2  A    between atoms: O_3  and  C_4
REMARK    3  A    between atoms: C_4  and  C_6
REMARK    4  A    between atoms: C_6  and  C_7
REMARK    5  A    between atoms: C_6  and  N_15
REMARK    6  A    between atoms: C_7  and  C_8
REMARK    7  A    between atoms: C_8  and  C_9
REMARK    8  A    between atoms: N_15  and  CA_16
REMARK    9  A    between atoms: CA_16  and  C_18
REMARK   10  A    between atoms: C_29  and  C_30
REMARK                            x       y       z     vdW  Elec       q    Type
REMARK                         _______ _______ _______ _____ _____    ______ ____
ROOT
ATOM      1  CA  ALA A   1      48.632  79.418  41.636  0.00  0.00    +0.149 C 
ATOM      2  CB  ALA A   1      49.192  78.014  41.388  0.00  0.00    +0.029 C 
ENDROOT
BRANCH   1   3
ATOM      3  C   ALA A   1      47.695  79.787  40.552  0.00  0.00    +0.242 C 
ATOM      4  O   ALA A   1      48.309  79.840  39.389  0.00  0.00    -0.273 OA
ATOM      5  N   UNK A   2      46.359  80.081  40.509  0.00  0.00    -0.266 N 
ATOM      6  C   UNK A   2      45.567  79.602  41.720  0.00  0.00    +0.120 C 
ATOM      7  C   UNK A   2      44.592  78.621  41.169  0.00  0.00    -0.006 A 
ATOM      8  C   UNK A   2      44.006  77.670  42.009  0.00  0.00    -0.003 A 
ATOM      9  C   UNK A   2      43.103  76.735  41.590  0.00  0.00    -0.000 A 
ATOM     10  C   UNK A   2      42.745  76.725  40.258  0.00  0.00    -0.000 A 
ATOM     11  C   UNK A   2      43.308  77.650  39.414  0.00  0.00    -0.004 A 
ATOM     12  C   UNK A   2      44.234  78.606  39.851  0.00  0.00    -0.022 A 
ATOM     13  C   UNK A   2      44.740  79.524  38.805  0.00  0.00    +0.058 C 
ATOM     14  C   UNK A   2      45.518  80.655  39.552  0.00  0.00    +0.184 C 
BRANCH  14  15
ATOM     15  C   UNK A   2      45.896  81.604  38.544  0.00  0.00    +0.383 C 
ATOM     16  O   UNK A   2      46.918  82.266  38.506  0.00  0.00    -0.244 OA
ATOM     17  O   UNK A   2      44.962  81.796  37.458  0.00  0.00    -0.244 OA
ENDBRANCH  14  15
ENDBRANCH   1   3
BRANCH   1  18
ATOM     18  N   ALA A   1      49.726  80.318  41.599  0.00  0.00    -0.201 NA
BRANCH  18  19
ATOM     19  C   UNK A   0      50.025  81.179  42.672  0.00  0.00    +0.172 C 
BRANCH  19  20
ATOM     20  C   UNK A   0      50.480  80.572  43.917  0.00  0.00    +0.333 C 
ATOM     21  O   UNK A   0      51.157  79.524  43.926  0.00  0.00    -0.249 OA
BRANCH  20  22
ATOM     22  O   UNK A   0      50.200  81.109  45.162  0.00  0.00    -0.448 OA
BRANCH  22  24
ATOM     23  C   UNK A   0      49.642  79.750  47.028  0.00  0.00    +0.051 C 
ATOM     24  C   UNK A   0      50.734  80.556  46.362  0.00  0.00    +0.209 C 
ENDBRANCH  22  24
ENDBRANCH  20  22
ENDBRANCH  19  20
BRANCH  19  25
ATOM     25  C   UNK A   0      50.790  82.386  42.213  0.00  0.00    +0.033 C 
BRANCH  25  26
ATOM     26  C   UNK A   0      49.981  83.334  41.338  0.00  0.00    +0.028 C 
BRANCH  26  27
ATOM     27  C   UNK A   0      49.187  84.162  42.325  0.00  0.00    -0.022 A 
ATOM     28  C   UNK A   0      49.893  84.892  43.235  0.00  0.00    -0.004 A 
ATOM     29  C   UNK A   0      49.222  85.667  44.161  0.00  0.00    -0.000 A 
ATOM     30  C   UNK A   0      47.840  85.700  44.164  0.00  0.00    -0.000 A 
ATOM     31  C   UNK A   0      47.164  84.947  43.227  0.00  0.00    -0.000 A 
ATOM     32  C   UNK A   0      47.816  84.171  42.300  0.00  0.00    -0.004 A 
ENDBRANCH  26  27
ENDBRANCH  25  26
ENDBRANCH  19  25
ENDBRANCH  18  19
ENDBRANCH   1  18
TORSDOF 10
