REMARK  Name = Quizartinib
REMARK  7 active torsions:
REMARK  status: ('A' for Active; 'I' for Inactive)
REMARK    1  A    between atoms: C_2  and  C_5
REMARK    2  A    between atoms: N_13  and  C_14
REMARK    3  A    between atoms: C_17  and  C_20
REMARK    4  A    between atoms: C_26  and  O_29
REMARK    5  A    between atoms: O_29  and  C_30
REMARK    6  A    between atoms: C_30  and  C_31
REMARK    7  A    between atoms: C_31  and  N_32
REMARK                            x       y       z     vdW  Elec       q    Type
REMARK                         _______ _______ _______ _____ _____    ______ ____
ROOT
ATOM      1  C   UNL     1      46.754  81.195  40.272  0.00  0.00    +0.101 A 
ATOM      2  C   UNL     1      46.123  80.030  40.619  0.00  0.00    +0.101 A 
ATOM      3  N   UNL     1      45.038  79.804  39.786  0.00  0.00    -0.283 N 
ATOM      4  C   UNL     1      44.091  78.889  39.636  0.00  0.00    +0.072 A 
ATOM      5  C   UNL     1      43.184  79.082  38.632  0.00  0.00    +0.051 A 
ATOM      6  C   UNL     1      42.133  78.184  38.371  0.00  0.00    +0.045 A 
ATOM      7  C   UNL     1      41.946  77.044  39.113  0.00  0.00    +0.139 A 
ATOM      8  C   UNL     1      42.873  76.853  40.137  0.00  0.00    +0.038 A 
ATOM      9  C   UNL     1      43.873  77.707  40.385  0.00  0.00    +0.021 A 
ATOM     10  S   UNL     1      43.715  80.551  37.944  0.00  0.00    -0.048 S 
ATOM     11  C   UNL     1      45.051  80.840  38.962  0.00  0.00    +0.179 A 
ATOM     12  N   UNL     1      46.084  81.697  39.240  0.00  0.00    -0.221 NA
ENDROOT
BRANCH   1  16
ATOM     13  C   UNL     1      50.207  82.812  42.209  0.00  0.00    +0.075 A 
ATOM     14  C   UNL     1      49.646  83.429  41.113  0.00  0.00    +0.017 A 
ATOM     15  C   UNL     1      48.521  82.894  40.489  0.00  0.00    +0.003 A 
ATOM     16  C   UNL     1      47.934  81.734  40.945  0.00  0.00    +0.019 A 
ATOM     17  C   UNL     1      48.514  81.142  42.037  0.00  0.00    +0.003 A 
ATOM     18  C   UNL     1      49.627  81.655  42.669  0.00  0.00    +0.017 A 
BRANCH  13  27
ATOM     19  C   UNL     1      53.787  82.137  47.867  0.00  0.00    +0.155 A 
ATOM     20  C   UNL     1      52.896  82.322  46.817  0.00  0.00    +0.075 A 
ATOM     21  C   UNL     1      53.641  82.684  45.719  0.00  0.00    +0.197 A 
ATOM     22  N   UNL     1      54.938  82.696  46.170  0.00  0.00    -0.060 NA
ATOM     23  O   UNL     1      54.983  82.373  47.423  0.00  0.00    -0.356 OA
ATOM     24  N   UNL     1      53.202  82.981  44.413  0.00  0.00    -0.138 NA
ATOM     25  C   UNL     1      51.888  82.748  43.976  0.00  0.00    +0.349 C 
ATOM     26  O   UNL     1      51.121  81.961  44.586  0.00  0.00    -0.248 OA
ATOM     27  N   UNL     1      51.352  83.396  42.811  0.00  0.00    -0.161 NA
BRANCH  19  29
ATOM     28  C   UNL     1      54.327  82.524  50.184  0.00  0.00    +0.008 C 
ATOM     29  C   UNL     1      53.423  81.741  49.240  0.00  0.00    +0.054 C 
ATOM     30  C   UNL     1      53.670  80.246  49.365  0.00  0.00    +0.008 C 
ATOM     31  C   UNL     1      51.984  81.998  49.576  0.00  0.00    +0.008 C 
ENDBRANCH  19  29
ENDBRANCH  13  27
ENDBRANCH   1  16
BRANCH   7  32
ATOM     32  O   UNL     1      40.945  76.154  38.884  0.00  0.00    -0.474 OA
BRANCH  32  33
ATOM     33  C   UNL     1      40.014  76.251  37.864  0.00  0.00    +0.223 C 
BRANCH  33  34
ATOM     34  C   UNL     1      38.839  75.374  38.120  0.00  0.00    +0.120 C 
BRANCH  34  35
ATOM     35  N   UNL     1      38.849  74.151  37.350  0.00  0.00    -0.265 NA
ATOM     36  C   UNL     1      39.472  74.259  36.085  0.00  0.00    +0.105 C 
ATOM     37  C   UNL     1      38.560  74.193  34.904  0.00  0.00    +0.159 C 
ATOM     38  O   UNL     1      37.761  73.051  35.041  0.00  0.00    -0.351 OA
ATOM     39  C   UNL     1      36.898  73.317  36.114  0.00  0.00    +0.159 C 
ATOM     40  C   UNL     1      37.651  73.402  37.416  0.00  0.00    +0.105 C 
ENDBRANCH  34  35
ENDBRANCH  33  34
ENDBRANCH  32  33
ENDBRANCH   7  32
TORSDOF 7
