REMARK  Name = R0-93877
REMARK  6 active torsions:
REMARK  status: ('A' for Active; 'I' for Inactive)
REMARK    1  A    between atoms: O_2  and  C_3
REMARK    2  A    between atoms: C_3  and  C_4
REMARK    3  A    between atoms: C_4  and  C_5
REMARK    4  A    between atoms: C_5  and  N_6
REMARK    5  A    between atoms: C_9  and  N_12
REMARK    6  A    between atoms: C_13  and  C_15
REMARK                            x       y       z     vdW  Elec       q    Type
REMARK                         _______ _______ _______ _____ _____    ______ ____
ROOT
ATOM      1  N   UNL     1      46.012  81.006  39.952  0.00  0.00    -0.203 NA
ATOM      2  C   UNL     1      46.312  81.543  41.205  0.00  0.00    +0.268 C 
ATOM      3  O   UNL     1      45.327  81.613  42.006  0.00  0.00    -0.268 OA
ENDROOT
BRANCH   2   4
ATOM      4  C   UNL     1      47.610  82.016  41.665  0.00  0.00    +0.090 A 
ATOM      5  C   UNL     1      48.756  81.285  41.388  0.00  0.00    +0.020 A 
ATOM      6  C   UNL     1      50.012  81.680  41.796  0.00  0.00    +0.074 A 
ATOM      7  C   UNL     1      50.186  82.843  42.512  0.00  0.00    +0.099 A 
ATOM      8  C   UNL     1      49.063  83.591  42.802  0.00  0.00    +0.033 A 
ATOM      9  C   UNL     1      47.792  83.179  42.382  0.00  0.00    +0.140 A 
ATOM     10  O   UNL     1      46.880  84.121  42.816  0.00  0.00    -0.475 OA
ATOM     11  C   UNL     1      47.504  85.088  43.637  0.00  0.00    +0.210 C 
ATOM     12  C   UNL     1      48.975  84.856  43.542  0.00  0.00    +0.078 C 
ATOM     13  N   UNL     1      51.477  83.275  42.947  0.00  0.00    -0.127 NA
ATOM     14 CL   UNL     1      51.410  80.688  41.398  0.00  0.00    -0.081 Cl
ENDBRANCH   2   4
BRANCH   1  18
ATOM     15  N   UNL     1      43.437  78.358  38.765  0.00  0.00    -0.272 NA
ATOM     16  C   UNL     1      43.878  78.108  40.075  0.00  0.00    +0.074 C 
ATOM     17  C   UNL     1      44.988  78.918  40.616  0.00  0.00    +0.039 C 
ATOM     18  C   UNL     1      45.904  79.594  39.665  0.00  0.00    +0.098 C 
ATOM     19  C   UNL     1      45.543  79.272  38.268  0.00  0.00    +0.039 C 
ATOM     20  C   UNL     1      44.056  79.471  38.100  0.00  0.00    +0.074 C 
BRANCH  15  21
ATOM     21  C   UNL     1      41.998  78.445  38.704  0.00  0.00    +0.075 C 
BRANCH  21  22
ATOM     22  C   UNL     1      41.429  77.038  38.644  0.00  0.00    +0.049 C 
BRANCH  22  23
ATOM     23  C   UNL     1      40.348  77.051  37.589  0.00  0.00    +0.144 C 
BRANCH  23  25
ATOM     24  C   UNL     1      39.777  75.838  35.720  0.00  0.00    +0.174 C 
ATOM     25  O   UNL     1      40.756  76.541  36.382  0.00  0.00    -0.351 OA
ENDBRANCH  23  25
ENDBRANCH  22  23
ENDBRANCH  21  22
ENDBRANCH  15  21
ENDBRANCH   1  18
TORSDOF 6
