REMARK  Name = Rabeprazole
REMARK  8 active torsions:
REMARK  status: ('A' for Active; 'I' for Inactive)
REMARK    1  A    between atoms: C_3  and  O_20
REMARK    2  A    between atoms: C_7  and  C_8
REMARK    3  A    between atoms: C_8  and  S_9
REMARK    4  A    between atoms: S_9  and  C_11
REMARK    5  A    between atoms: O_20  and  C_21
REMARK    6  A    between atoms: C_21  and  C_22
REMARK    7  A    between atoms: C_22  and  C_23
REMARK    8  A    between atoms: C_23  and  O_24
REMARK                            x       y       z     vdW  Elec       q    Type
REMARK                         _______ _______ _______ _____ _____    ______ ____
ROOT
ATOM      1  C   UNL     1      46.888  80.391  42.279  0.00  0.00    +0.035 C 
ATOM      2  C   UNL     1      46.690  80.961  40.922  0.00  0.00    +0.027 A 
ATOM      3  C   UNL     1      47.618  81.953  40.507  0.00  0.00    +0.137 A 
ATOM      4  C   UNL     1      47.379  82.439  39.239  0.00  0.00    +0.057 A 
ATOM      5  C   UNL     1      46.338  82.020  38.422  0.00  0.00    +0.102 A 
ATOM      6  N   UNL     1      45.518  81.081  38.906  0.00  0.00    -0.247 NA
ATOM      7  C   UNL     1      45.667  80.545  40.126  0.00  0.00    +0.072 A 
ENDROOT
BRANCH   7   8
ATOM      8  C   UNL     1      44.689  79.498  40.563  0.00  0.00    +0.145 C 
BRANCH   8   9
ATOM      9  S   UNL     1      44.852  78.016  39.501  0.00  0.00    +0.107 S 
ATOM     10  O   UNL     1      45.244  76.937  40.536  0.00  0.00    -0.248 OA
BRANCH   9  11
ATOM     11  C   UNL     1      43.153  77.587  39.116  0.00  0.00    +0.221 A 
ATOM     12  N   UNL     1      42.304  76.796  39.782  0.00  0.00    -0.218 NA
ATOM     13  C   UNL     1      41.113  76.739  39.151  0.00  0.00    +0.101 A 
ATOM     14  C   UNL     1      39.928  76.066  39.441  0.00  0.00    +0.021 A 
ATOM     15  C   UNL     1      38.865  76.215  38.582  0.00  0.00    +0.002 A 
ATOM     16  C   UNL     1      38.948  77.008  37.454  0.00  0.00    +0.002 A 
ATOM     17  C   UNL     1      40.137  77.655  37.207  0.00  0.00    +0.021 A 
ATOM     18  C   UNL     1      41.228  77.539  38.034  0.00  0.00    +0.101 A 
ATOM     19  N   UNL     1      42.481  78.038  38.044  0.00  0.00    -0.218 NA
ENDBRANCH   9  11
ENDBRANCH   8   9
ENDBRANCH   7   8
BRANCH   3  20
ATOM     20  O   UNL     1      48.608  82.326  41.324  0.00  0.00    -0.476 OA
BRANCH  20  21
ATOM     21  C   UNL     1      49.812  82.089  41.809  0.00  0.00    +0.208 C 
BRANCH  21  22
ATOM     22  C   UNL     1      50.999  82.921  41.495  0.00  0.00    +0.079 C 
BRANCH  22  23
ATOM     23  C   UNL     1      51.255  84.022  42.443  0.00  0.00    +0.146 C 
BRANCH  23  24
ATOM     24  O   UNL     1      51.195  83.615  43.783  0.00  0.00    -0.351 OA
ATOM     25  C   UNL     1      51.654  84.583  44.644  0.00  0.00    +0.174 C 
ENDBRANCH  23  24
ENDBRANCH  22  23
ENDBRANCH  21  22
ENDBRANCH  20  21
ENDBRANCH   3  20
TORSDOF 8
