REMARK  Name = Raloxifene
REMARK  7 active torsions:
REMARK  status: ('A' for Active; 'I' for Inactive)
REMARK    1  A    between atoms: N_4  and  C_7
REMARK    2  A    between atoms: C_7  and  C_8
REMARK    3  A    between atoms: C_8  and  O_9
REMARK    4  A    between atoms: O_9  and  C_10
REMARK    5  A    between atoms: C_13  and  C_16
REMARK    6  A    between atoms: C_16  and  C_18
REMARK    7  A    between atoms: C_19  and  C_28
REMARK                            x       y       z     vdW  Elec       q    Type
REMARK                         _______ _______ _______ _____ _____    ______ ____
ROOT
ATOM      1  C   UNL     1      47.009  79.344  41.993  0.00  0.00    +0.196 C 
ATOM      2  O   UNL     1      47.809  79.021  42.900  0.00  0.00    -0.287 OA
ENDROOT
BRANCH   1   3
ATOM      3  C   UNL     1      47.273  80.647  41.310  0.00  0.00    +0.045 A 
ATOM      4  C   UNL     1      48.472  81.270  41.497  0.00  0.00    +0.033 A 
ATOM      5  S   UNL     1      48.381  82.603  40.391  0.00  0.00    -0.087 S 
ATOM      6  C   UNL     1      46.838  82.317  39.747  0.00  0.00    +0.033 A 
ATOM      7  C   UNL     1      46.421  81.197  40.396  0.00  0.00    +0.010 A 
ATOM      8  C   UNL     1      45.146  80.726  40.026  0.00  0.00    +0.004 A 
ATOM      9  C   UNL     1      44.392  81.361  39.085  0.00  0.00    +0.042 A 
ATOM     10  C   UNL     1      44.818  82.495  38.435  0.00  0.00    +0.196 A 
ATOM     11  C   UNL     1      46.058  82.972  38.776  0.00  0.00    +0.048 A 
ATOM     12  O   UNL     1      44.040  83.122  37.487  0.00  0.00    -0.287 OA
BRANCH   4  13
ATOM     13  C   UNL     1      49.619  80.958  42.361  0.00  0.00    +0.006 A 
ATOM     14  C   UNL     1      50.926  81.189  42.097  0.00  0.00    +0.004 A 
ATOM     15  C   UNL     1      51.931  80.924  43.041  0.00  0.00    +0.042 A 
ATOM     16  C   UNL     1      51.601  80.416  44.266  0.00  0.00    +0.196 A 
ATOM     17  C   UNL     1      50.265  80.170  44.556  0.00  0.00    +0.042 A 
ATOM     18  C   UNL     1      49.294  80.436  43.620  0.00  0.00    +0.004 A 
ATOM     19  O   UNL     1      52.587  80.146  45.223  0.00  0.00    -0.287 OA
ENDBRANCH   4  13
ENDBRANCH   1   3
BRANCH   1  23
ATOM     20  C   UNL     1      43.735  76.749  41.155  0.00  0.00    +0.139 A 
ATOM     21  C   UNL     1      44.601  77.109  40.168  0.00  0.00    +0.037 A 
ATOM     22  C   UNL     1      45.682  77.962  40.421  0.00  0.00    +0.006 A 
ATOM     23  C   UNL     1      45.915  78.472  41.672  0.00  0.00    +0.039 A 
ATOM     24  C   UNL     1      45.042  78.113  42.684  0.00  0.00    +0.006 A 
ATOM     25  C   UNL     1      43.982  77.276  42.431  0.00  0.00    +0.037 A 
BRANCH  20  26
ATOM     26  O   UNL     1      42.675  75.942  41.013  0.00  0.00    -0.474 OA
BRANCH  26  27
ATOM     27  C   UNL     1      42.418  74.674  40.597  0.00  0.00    +0.223 C 
BRANCH  27  28
ATOM     28  C   UNL     1      41.106  74.442  39.895  0.00  0.00    +0.120 C 
BRANCH  28  32
ATOM     29  C   UNL     1      39.122  73.947  36.500  0.00  0.00    +0.003 C 
ATOM     30  C   UNL     1      39.380  75.403  36.827  0.00  0.00    +0.017 C 
ATOM     31  C   UNL     1      39.852  75.613  38.246  0.00  0.00    +0.072 C 
ATOM     32  N   UNL     1      41.092  74.923  38.550  0.00  0.00    -0.270 NA
ATOM     33  C   UNL     1      41.320  73.923  37.536  0.00  0.00    +0.072 C 
ATOM     34  C   UNL     1      40.056  73.100  37.349  0.00  0.00    +0.017 C 
ENDBRANCH  28  32
ENDBRANCH  27  28
ENDBRANCH  26  27
ENDBRANCH  20  26
ENDBRANCH   1  23
TORSDOF 7
