REMARK  Name = Raltitrexed
REMARK  9 active torsions:
REMARK  status: ('A' for Active; 'I' for Inactive)
REMARK    1  A    between atoms: C_7  and  C_10
REMARK    2  A    between atoms: C_10  and  N_11
REMARK    3  A    between atoms: N_11  and  C_13
REMARK    4  A    between atoms: C_16  and  C_18
REMARK    5  A    between atoms: N_20  and  CA_21
REMARK    6  A    between atoms: CA_21  and  CB_22
REMARK    7  A    between atoms: CA_21  and  C_27
REMARK    8  A    between atoms: CB_22  and  CG_23
REMARK    9  A    between atoms: CG_23  and  CD_24
REMARK                            x       y       z     vdW  Elec       q    Type
REMARK                         _______ _______ _______ _____ _____    ______ ____
ROOT
ATOM      1  C   UNK A   0      49.651  83.022  43.470  0.00  0.00    +0.079 A 
ATOM      2  C   UNK A   0      49.581  83.336  44.795  0.00  0.00    +0.022 A 
ATOM      3  C   UNK A   0      50.507  82.813  45.616  0.00  0.00    +0.013 A 
ATOM      4  C   UNK A   0      51.458  81.998  45.068  0.00  0.00    +0.086 A 
ATOM      5  S   UNK A   0      51.022  81.991  43.405  0.00  0.00    -0.068 S 
ENDROOT
BRANCH   4   6
ATOM      6  C   UNK A   0      52.570  81.313  45.739  0.00  0.00    +0.271 C 
ATOM      7  O   UNK A   0      53.471  80.833  45.035  0.00  0.00    -0.268 OA
ATOM      8  N   GLU A   1      52.611  81.204  47.143  0.00  0.00    -0.191 NA
BRANCH   8   9
ATOM      9  CA  GLU A   1      53.712  80.587  47.857  0.00  0.00    +0.199 C 
BRANCH   9  10
ATOM     10  C   GLU A   1      54.182  81.494  48.920  0.00  0.00    +0.384 C 
ATOM     11  O   GLU A   1      55.341  81.446  49.409  0.00  0.00    -0.244 OA
ATOM     12  OXT GLU A   1      53.328  82.463  49.431  0.00  0.00    -0.244 OA
ENDBRANCH   9  10
BRANCH   9  13
ATOM     13  CB  GLU A   1      53.349  79.230  48.426  0.00  0.00    +0.045 C 
BRANCH  13  14
ATOM     14  CG  GLU A   1      52.279  79.349  49.491  0.00  0.00    +0.116 C 
BRANCH  14  15
ATOM     15  CD  GLU A   1      51.988  78.002  50.031  0.00  0.00    +0.365 C 
ATOM     16  OE1 GLU A   1      52.604  77.010  49.571  0.00  0.00    -0.246 OA
ATOM     17  OE2 GLU A   1      51.041  77.870  51.030  0.00  0.00    -0.246 OA
ENDBRANCH  14  15
ENDBRANCH  13  14
ENDBRANCH   9  13
ENDBRANCH   8   9
ENDBRANCH   4   6
BRANCH   1  18
ATOM     18  N   UNK A   0      48.791  83.461  42.431  0.00  0.00    -0.297 N 
ATOM     19  C   UNK A   0      47.857  84.519  42.721  0.00  0.00    +0.113 C 
BRANCH  18  20
ATOM     20  C   UNK A   0      48.853  82.871  41.131  0.00  0.00    +0.118 C 
BRANCH  20  27
ATOM     21  C   UNK A   0      42.985  78.098  38.994  0.00  0.00    +0.074 C 
ATOM     22  C   UNK A   0      44.044  79.134  39.211  0.00  0.00    +0.143 A 
ATOM     23  N   UNK A   0      44.873  79.020  40.253  0.00  0.00    -0.230 NA
ATOM     24  C   UNK A   0      45.823  79.959  40.440  0.00  0.00    +0.087 A 
ATOM     25  C   UNK A   0      45.969  81.034  39.592  0.00  0.00    +0.075 A 
ATOM     26  C   UNK A   0      46.946  81.979  39.806  0.00  0.00    +0.004 A 
ATOM     27  C   UNK A   0      47.790  81.853  40.880  0.00  0.00    -0.002 A 
ATOM     28  C   UNK A   0      47.635  80.775  41.721  0.00  0.00    -0.001 A 
ATOM     29  C   UNK A   0      46.669  79.828  41.520  0.00  0.00    +0.019 A 
ATOM     30  C   UNK A   0      45.090  81.114  38.525  0.00  0.00    +0.282 A 
ATOM     31  O   UNK A   0      45.190  82.071  37.736  0.00  0.00    -0.265 OA
ATOM     32  N   UNK A   0      44.141  80.158  38.355  0.00  0.00    -0.193 NA
ENDBRANCH  20  27
ENDBRANCH  18  20
ENDBRANCH   1  18
TORSDOF 9
