REMARK  Name = Ramelteon
REMARK  4 active torsions:
REMARK  status: ('A' for Active; 'I' for Inactive)
REMARK    1  A    between atoms: C_2  and  C_3
REMARK    2  A    between atoms: N_5  and  C_6
REMARK    3  A    between atoms: C_6  and  C_7
REMARK    4  A    between atoms: C_7  and  C_8
REMARK                            x       y       z     vdW  Elec       q    Type
REMARK                         _______ _______ _______ _____ _____    ______ ____
ROOT
ATOM      1  C   UNL     1      47.044  81.182  41.337  0.00  0.00    +0.024 C 
ATOM      2  C   UNL     1      47.846  81.968  40.360  0.00  0.00    +0.009 C 
ATOM      3  C   UNL     1      46.776  82.537  39.402  0.00  0.00    +0.026 C 
ATOM      4  C   UNL     1      45.872  81.351  39.307  0.00  0.00    -0.026 A 
ATOM      5  C   UNL     1      46.024  80.544  40.442  0.00  0.00    -0.027 A 
ATOM      6  C   UNL     1      45.244  79.405  40.484  0.00  0.00    +0.011 A 
ATOM      7  C   UNL     1      44.380  79.110  39.454  0.00  0.00    +0.134 A 
ATOM      8  C   UNL     1      44.244  79.921  38.338  0.00  0.00    +0.036 A 
ATOM      9  C   UNL     1      45.006  81.049  38.281  0.00  0.00    -0.001 A 
ATOM     10  O   UNL     1      43.707  77.929  39.709  0.00  0.00    -0.475 OA
ATOM     11  C   UNL     1      44.038  77.414  40.954  0.00  0.00    +0.210 C 
ATOM     12  C   UNL     1      45.111  78.332  41.471  0.00  0.00    +0.076 C 
ENDROOT
BRANCH   1  13
ATOM     13  C   UNL     1      47.729  80.165  42.141  0.00  0.00    +0.028 C 
BRANCH  13  14
ATOM     14  C   UNL     1      48.828  80.557  43.029  0.00  0.00    +0.115 C 
BRANCH  14  17
ATOM     15  C   UNL     1      50.762  82.031  42.530  0.00  0.00    +0.241 C 
ATOM     16  O   UNL     1      50.175  83.049  42.981  0.00  0.00    -0.273 OA
ATOM     17  N   UNL     1      50.108  80.772  42.471  0.00  0.00    -0.205 NA
BRANCH  15  19
ATOM     18  C   UNL     1      52.557  83.661  42.027  0.00  0.00    +0.010 C 
ATOM     19  C   UNL     1      52.165  82.216  42.065  0.00  0.00    +0.087 C 
ENDBRANCH  15  19
ENDBRANCH  14  17
ENDBRANCH  13  14
ENDBRANCH   1  13
TORSDOF 4
