REMARK  Name = Ramipril
REMARK  10 active torsions:
REMARK  status: ('A' for Active; 'I' for Inactive)
REMARK    1  A    between atoms: C_2  and  O_3
REMARK    2  A    between atoms: O_3  and  C_4
REMARK    3  A    between atoms: C_4  and  C_6
REMARK    4  A    between atoms: C_6  and  C_7
REMARK    5  A    between atoms: C_6  and  N_15
REMARK    6  A    between atoms: C_7  and  C_8
REMARK    7  A    between atoms: C_8  and  C_9
REMARK    8  A    between atoms: N_15  and  CA_16
REMARK    9  A    between atoms: CA_16  and  C_18
REMARK   10  A    between atoms: C_27  and  C_28
REMARK                            x       y       z     vdW  Elec       q    Type
REMARK                         _______ _______ _______ _____ _____    ______ ____
ROOT
ATOM      1  N   ALA A   1      44.340  78.343  40.397  0.00  0.00    -0.201 NA
ENDROOT
BRANCH   1   2
ATOM      2  CA  ALA A   1      45.669  78.818  40.424  0.00  0.00    +0.149 C 
ATOM      3  CB  ALA A   1      46.675  78.016  39.662  0.00  0.00    +0.029 C 
BRANCH   2   4
ATOM      4  C   ALA A   1      45.752  80.258  40.034  0.00  0.00    +0.242 C 
ATOM      5  O   ALA A   1      44.821  80.693  39.309  0.00  0.00    -0.273 OA
ATOM      6  N   UNK A   2      46.775  81.148  40.412  0.00  0.00    -0.272 N 
ATOM      7  C   UNK A   2      47.968  81.000  41.158  0.00  0.00    +0.076 C 
ATOM      8  C   UNK A   2      47.928  80.253  42.451  0.00  0.00    +0.020 C 
ATOM      9  C   UNK A   2      49.162  80.858  43.148  0.00  0.00    +0.002 C 
ATOM     10  C   UNK A   2      49.334  82.246  42.503  0.00  0.00    +0.002 C 
ATOM     11  C   UNK A   2      48.049  82.404  41.820  0.00  0.00    +0.020 C 
ATOM     12  C   UNK A   2      47.958  83.216  40.601  0.00  0.00    +0.033 C 
ATOM     13  C   UNK A   2      46.730  82.567  39.991  0.00  0.00    +0.179 C 
BRANCH  13  14
ATOM     14  C   UNK A   2      46.707  82.671  38.518  0.00  0.00    +0.382 C 
ATOM     15  O   UNK A   2      47.114  81.691  37.843  0.00  0.00    -0.244 OA
ATOM     16  O   UNK A   2      46.263  83.787  37.852  0.00  0.00    -0.244 OA
ENDBRANCH  13  14
ENDBRANCH   2   4
ENDBRANCH   1   2
BRANCH   1  17
ATOM     17  C   UNK A   0      44.003  77.071  40.865  0.00  0.00    +0.172 C 
BRANCH  17  18
ATOM     18  C   UNK A   0      43.927  76.854  42.314  0.00  0.00    +0.333 C 
ATOM     19  O   UNK A   0      43.832  77.741  43.170  0.00  0.00    -0.249 OA
BRANCH  18  20
ATOM     20  O   UNK A   0      43.964  75.533  42.798  0.00  0.00    -0.448 OA
BRANCH  20  22
ATOM     21  C   UNK A   0      45.414  74.877  44.612  0.00  0.00    +0.051 C 
ATOM     22  C   UNK A   0      44.019  75.284  44.190  0.00  0.00    +0.209 C 
ENDBRANCH  20  22
ENDBRANCH  18  20
ENDBRANCH  17  18
BRANCH  17  23
ATOM     23  C   UNK A   0      42.578  76.769  40.348  0.00  0.00    +0.033 C 
BRANCH  23  24
ATOM     24  C   UNK A   0      42.487  77.117  38.870  0.00  0.00    +0.028 C 
BRANCH  24  25
ATOM     25  C   UNK A   0      41.141  76.740  38.409  0.00  0.00    -0.022 A 
ATOM     26  C   UNK A   0      40.629  77.160  37.198  0.00  0.00    -0.004 A 
ATOM     27  C   UNK A   0      39.368  76.800  36.782  0.00  0.00    -0.000 A 
ATOM     28  C   UNK A   0      38.597  75.994  37.601  0.00  0.00    -0.000 A 
ATOM     29  C   UNK A   0      39.088  75.570  38.800  0.00  0.00    -0.000 A 
ATOM     30  C   UNK A   0      40.349  75.932  39.215  0.00  0.00    -0.004 A 
ENDBRANCH  24  25
ENDBRANCH  23  24
ENDBRANCH  17  23
ENDBRANCH   1  17
TORSDOF 10
