REMARK  Name = Ramosetron
REMARK  2 active torsions:
REMARK  status: ('A' for Active; 'I' for Inactive)
REMARK    1  A    between atoms: C_4  and  C_11
REMARK    2  A    between atoms: C_11  and  C_13
REMARK                            x       y       z     vdW  Elec       q    Type
REMARK                         _______ _______ _______ _____ _____    ______ ____
ROOT
ATOM      1  C   UNL     1      44.439  79.826  38.959  0.00  0.00    +0.174 C 
ATOM      2  O   UNL     1      45.376  79.865  38.118  0.00  0.00    -0.291 OA
ENDROOT
BRANCH   1   6
ATOM      3  C   UNL     1      40.433  77.283  37.379  0.00  0.00    +0.130 C 
ATOM      4  N   UNL     1      41.614  77.658  38.132  0.00  0.00    -0.324 N 
ATOM      5  C   UNL     1      42.344  78.775  37.903  0.00  0.00    +0.079 A 
ATOM      6  C   UNL     1      43.395  78.827  38.794  0.00  0.00    +0.053 A 
ATOM      7  C   UNL     1      43.243  77.672  39.566  0.00  0.00    +0.020 A 
ATOM      8  C   UNL     1      43.971  77.151  40.621  0.00  0.00    +0.002 A 
ATOM      9  C   UNL     1      43.621  75.968  41.239  0.00  0.00    +0.000 A 
ATOM     10  C   UNL     1      42.517  75.264  40.813  0.00  0.00    +0.001 A 
ATOM     11  C   UNL     1      41.790  75.773  39.769  0.00  0.00    +0.017 A 
ATOM     12  C   UNL     1      42.149  76.956  39.158  0.00  0.00    +0.060 A 
ENDBRANCH   1   6
BRANCH   1  13
ATOM     13  C   UNL     1      44.465  80.797  40.056  0.00  0.00    +0.068 C 
ATOM     14  C   UNL     1      45.180  80.218  41.266  0.00  0.00    +0.014 C 
ATOM     15  C   UNL     1      46.639  80.007  41.078  0.00  0.00    +0.048 C 
ATOM     16  C   UNL     1      47.279  81.189  40.409  0.00  0.00    +0.074 A 
ATOM     17  C   UNL     1      46.556  82.142  39.765  0.00  0.00    +0.075 A 
ATOM     18  C   UNL     1      45.088  82.119  39.653  0.00  0.00    +0.055 C 
ATOM     19  N   UNL     1      47.412  83.051  39.283  0.00  0.00    -0.227 NA
ATOM     20  C   UNL     1      48.647  82.659  39.627  0.00  0.00    +0.198 A 
ATOM     21  N   UNL     1      48.558  81.517  40.317  0.00  0.00    -0.227 NA
ENDBRANCH   1  13
TORSDOF 2
