REMARK  Name = Ranitidine
REMARK  10 active torsions:
REMARK  status: ('A' for Active; 'I' for Inactive)
REMARK    1  A    between atoms: N_2  and  C_3
REMARK    2  A    between atoms: C_3  and  N_8
REMARK    3  A    between atoms: C_4  and  N_5
REMARK    4  A    between atoms: N_8  and  C_9
REMARK    5  A    between atoms: C_9  and  C_10
REMARK    6  A    between atoms: C_10  and  S_11
REMARK    7  A    between atoms: S_11  and  C_12
REMARK    8  A    between atoms: C_12  and  C_13
REMARK    9  A    between atoms: C_16  and  C_18
REMARK   10  A    between atoms: C_18  and  N_19
REMARK                            x       y       z     vdW  Elec       q    Type
REMARK                         _______ _______ _______ _____ _____    ______ ____
ROOT
ATOM      1  S   UNL     1      46.284  80.607  39.767  0.00  0.00    -0.130 S 
ENDROOT
BRANCH   1   2
ATOM      2  C   UNL     1      47.391  81.843  39.165  0.00  0.00    +0.081 C 
BRANCH   2   3
ATOM      3  C   UNL     1      47.869  82.777  40.211  0.00  0.00    +0.125 C 
BRANCH   3   4
ATOM      4  N   UNL     1      48.022  82.191  41.488  0.00  0.00    -0.220 NA
BRANCH   4   5
ATOM      5  C   UNL     1      49.384  81.958  41.932  0.00  0.00    +0.157 C 
ATOM      6  C   UNL     1      50.356  82.380  41.152  0.00  0.00    +0.198 C 
BRANCH   6   7
ATOM      7  N   UNL     1      51.704  82.443  41.560  0.00  0.00    +0.062 N 
ATOM      8  O   UNL     1      52.634  82.873  40.840  0.00  0.00    -0.126 OA
ATOM      9  O   UNL     1      52.026  82.008  42.824  0.00  0.00    -0.126 OA
ENDBRANCH   6   7
BRANCH   5  11
ATOM     10  C   UNL     1      48.402  80.829  43.913  0.00  0.00    +0.137 C 
ATOM     11  N   UNL     1      49.544  81.295  43.166  0.00  0.00    -0.219 NA
ENDBRANCH   5  11
ENDBRANCH   4   5
ENDBRANCH   3   4
ENDBRANCH   2   3
ENDBRANCH   1   2
BRANCH   1  12
ATOM     12  C   UNL     1      44.644  80.567  39.068  0.00  0.00    +0.122 C 
BRANCH  12  13
ATOM     13  C   UNL     1      43.968  79.311  39.479  0.00  0.00    +0.133 A 
ATOM     14  C   UNL     1      44.033  78.605  40.649  0.00  0.00    +0.037 A 
ATOM     15  C   UNL     1      43.187  77.508  40.466  0.00  0.00    +0.037 A 
ATOM     16  C   UNL     1      42.654  77.601  39.200  0.00  0.00    +0.139 A 
ATOM     17  O   UNL     1      43.136  78.667  38.661  0.00  0.00    -0.460 OA
BRANCH  16  18
ATOM     18  C   UNL     1      41.695  76.658  38.552  0.00  0.00    +0.138 C 
BRANCH  18  19
ATOM     19  N   UNL     1      40.581  77.374  37.960  0.00  0.00    -0.264 NA
ATOM     20  C   UNL     1      40.998  78.392  37.046  0.00  0.00    +0.090 C 
ATOM     21  C   UNL     1      39.656  76.479  37.301  0.00  0.00    +0.090 C 
ENDBRANCH  18  19
ENDBRANCH  16  18
ENDBRANCH  12  13
ENDBRANCH   1  12
TORSDOF 10
