REMARK  Name = Ranolazine
REMARK  9 active torsions:
REMARK  status: ('A' for Active; 'I' for Inactive)
REMARK    1  A    between atoms: C_3  and  N_9
REMARK    2  A    between atoms: C_10  and  C_12
REMARK    3  A    between atoms: C_12  and  N_13
REMARK    4  A    between atoms: N_16  and  C_19
REMARK    5  A    between atoms: C_19  and  C_20
REMARK    6  A    between atoms: C_20  and  C_21
REMARK    7  A    between atoms: C_21  and  O_22
REMARK    8  A    between atoms: O_22  and  C_23
REMARK    9  A    between atoms: C_28  and  O_29
REMARK                            x       y       z     vdW  Elec       q    Type
REMARK                         _______ _______ _______ _____ _____    ______ ____
ROOT
ATOM      1  N   UNL     1      45.942  80.736  40.010  0.00  0.00    -0.263 NA
ATOM      2  C   UNL     1      45.294  81.141  38.840  0.00  0.00    +0.090 C 
ATOM      3  C   UNL     1      44.081  80.256  38.598  0.00  0.00    +0.090 C 
ATOM      4  N   UNL     1      44.463  78.905  38.870  0.00  0.00    -0.268 NA
ATOM      5  C   UNL     1      44.814  78.670  40.235  0.00  0.00    +0.090 C 
ATOM      6  C   UNL     1      45.177  80.004  40.922  0.00  0.00    +0.090 C 
ENDROOT
BRANCH   1   7
ATOM      7  C   UNL     1      47.328  80.828  40.142  0.00  0.00    +0.161 C 
BRANCH   7   9
ATOM      8  N   UNL     1      48.878  82.629  41.077  0.00  0.00    -0.179 NA
ATOM      9  C   UNL     1      47.809  81.717  41.222  0.00  0.00    +0.262 C 
ATOM     10  O   UNL     1      47.251  81.683  42.358  0.00  0.00    -0.271 OA
BRANCH   8  13
ATOM     11  C   UNL     1      51.667  82.402  41.720  0.00  0.00    +0.032 C 
ATOM     12  C   UNL     1      50.783  83.298  42.474  0.00  0.00    -0.007 A 
ATOM     13  C   UNL     1      49.457  83.382  42.142  0.00  0.00    +0.065 A 
ATOM     14  C   UNL     1      48.609  84.221  42.843  0.00  0.00    -0.007 A 
ATOM     15  C   UNL     1      49.075  84.990  43.885  0.00  0.00    -0.003 A 
ATOM     16  C   UNL     1      50.408  84.882  44.190  0.00  0.00    -0.001 A 
ATOM     17  C   UNL     1      51.264  84.055  43.507  0.00  0.00    -0.003 A 
ATOM     18  C   UNL     1      47.172  84.311  42.479  0.00  0.00    +0.032 C 
ENDBRANCH   8  13
ENDBRANCH   7   9
ENDBRANCH   1   7
BRANCH   4  19
ATOM     19  C   UNL     1      43.681  77.904  38.245  0.00  0.00    +0.109 C 
BRANCH  19  20
ATOM     20  C   UNL     1      42.278  77.818  38.733  0.00  0.00    +0.211 C 
ATOM     21  O   UNL     1      41.994  78.716  39.750  0.00  0.00    -0.218 OA
BRANCH  20  22
ATOM     22  C   UNL     1      41.278  78.135  37.616  0.00  0.00    +0.240 C 
BRANCH  22  23
ATOM     23  O   UNL     1      40.062  77.733  37.776  0.00  0.00    -0.470 OA
BRANCH  23  24
ATOM     24  C   UNL     1      38.840  77.341  37.943  0.00  0.00    +0.172 A 
ATOM     25  C   UNL     1      38.125  77.707  39.102  0.00  0.00    +0.040 A 
ATOM     26  C   UNL     1      36.837  77.311  39.310  0.00  0.00    +0.003 A 
ATOM     27  C   UNL     1      36.235  76.542  38.366  0.00  0.00    +0.003 A 
ATOM     28  C   UNL     1      36.895  76.161  37.222  0.00  0.00    +0.040 A 
ATOM     29  C   UNL     1      38.177  76.541  36.990  0.00  0.00    +0.172 A 
BRANCH  29  30
ATOM     30  O   UNL     1      38.907  76.197  35.860  0.00  0.00    -0.468 OA
ATOM     31  C   UNL     1      39.375  74.855  35.763  0.00  0.00    +0.253 C 
ENDBRANCH  29  30
ENDBRANCH  23  24
ENDBRANCH  22  23
ENDBRANCH  20  22
ENDBRANCH  19  20
ENDBRANCH   4  19
TORSDOF 9
