REMARK  Name = Rapacuronium_bromide
REMARK  9 active torsions:
REMARK  status: ('A' for Active; 'I' for Inactive)
REMARK    1  A    between atoms: C_2  and  C_3
REMARK    2  A    between atoms: C_3  and  O_5
REMARK    3  A    between atoms: O_5  and  C_6
REMARK    4  A    between atoms: C_7  and  N_35
REMARK    5  A    between atoms: C_20  and  N_27
REMARK    6  A    between atoms: C_21  and  O_23
REMARK    7  A    between atoms: O_23  and  C_24
REMARK    8  A    between atoms: N_35  and  C_41
REMARK    9  A    between atoms: C_41  and  C_42
REMARK                            x       y       z     vdW  Elec       q    Type
REMARK                         _______ _______ _______ _____ _____    ______ ____
ROOT
ATOM      1  C   UNL     1      47.425  81.652  41.957  0.00  0.00    +0.150 C 
ATOM      2  C   UNL     1      48.479  81.104  41.086  0.00  0.00    -0.013 C 
ATOM      3  C   UNL     1      47.740  80.038  40.307  0.00  0.00    -0.017 C 
ATOM      4  C   UNL     1      46.341  80.649  40.115  0.00  0.00    +0.001 C 
ATOM      5  C   UNL     1      46.078  81.215  41.453  0.00  0.00    +0.035 C 
ATOM      6  C   UNL     1      45.495  80.141  42.336  0.00  0.00    +0.003 C 
ATOM      7  C   UNL     1      44.372  79.372  41.769  0.00  0.00    +0.000 C 
ATOM      8  C   UNL     1      44.084  79.599  40.321  0.00  0.00    +0.000 C 
ATOM      9  C   UNL     1      45.400  79.649  39.581  0.00  0.00    +0.000 C 
ATOM     10  C   UNL     1      45.908  78.233  39.526  0.00  0.00    +0.000 C 
ATOM     11  C   UNL     1      45.003  77.404  38.670  0.00  0.00    +0.000 C 
ATOM     12  C   UNL     1      43.627  77.997  38.469  0.00  0.00    +0.004 C 
ATOM     13  C   UNL     1      43.086  78.692  39.705  0.00  0.00    +0.002 C 
ATOM     14  C   UNL     1      42.591  77.663  40.680  0.00  0.00    +0.020 C 
ATOM     15  C   UNL     1      41.463  76.802  40.144  0.00  0.00    +0.098 C 
ATOM     16  C   UNL     1      41.442  76.717  38.667  0.00  0.00    +0.183 C 
ATOM     17  C   UNL     1      42.751  76.911  37.965  0.00  0.00    +0.045 C 
ATOM     18  C   UNL     1      41.887  79.510  39.230  0.00  0.00    +0.000 C 
ATOM     19  C   UNL     1      45.156  82.410  41.455  0.00  0.00    +0.004 C 
ENDROOT
BRANCH  15  20
ATOM     20  N   UNL     1      41.368  75.618  40.893  0.00  0.00    -0.271 NA
ATOM     21  C   UNL     1      40.287  74.729  40.624  0.00  0.00    +0.072 C 
ATOM     22  C   UNL     1      39.855  74.080  41.926  0.00  0.00    +0.017 C 
ATOM     23  C   UNL     1      40.993  73.325  42.545  0.00  0.00    +0.003 C 
ATOM     24  C   UNL     1      42.315  73.599  41.908  0.00  0.00    +0.017 C 
ATOM     25  C   UNL     1      42.515  75.034  41.468  0.00  0.00    +0.072 C 
ENDBRANCH  15  20
BRANCH   2  26
ATOM     26  N   UNL     1      49.703  80.680  41.671  0.00  0.00    +0.396 N 
ATOM     27  C   UNL     1      50.596  81.827  41.860  0.00  0.00    -0.072 C 
ATOM     28  C   UNL     1      51.309  81.840  43.152  0.00  0.00    -0.022 C 
ATOM     29  C   UNL     1      51.834  80.493  43.611  0.00  0.00    -0.004 C 
ATOM     30  C   UNL     1      50.771  79.453  43.545  0.00  0.00    -0.022 C 
ATOM     31  C   UNL     1      49.520  80.069  42.967  0.00  0.00    -0.072 C 
BRANCH  26  32
ATOM     32  C   UNL     1      50.453  79.752  40.857  0.00  0.00    -0.046 C 
BRANCH  32  33
ATOM     33  C   UNL     1      50.983  80.354  39.610  0.00  0.00    -0.049 C 
ATOM     34  C   UNL     1      52.265  80.418  39.299  0.00  0.00    -0.007 C 
ENDBRANCH  32  33
ENDBRANCH  26  32
ENDBRANCH   2  26
BRANCH   1  35
ATOM     35  O   UNL     1      47.521  83.065  41.967  0.00  0.00    -0.454 OA
BRANCH  35  36
ATOM     36  C   UNL     1      47.650  83.823  43.106  0.00  0.00    +0.317 C 
ATOM     37  O   UNL     1      47.688  83.276  44.212  0.00  0.00    -0.250 OA
BRANCH  36  39
ATOM     38  C   UNL     1      47.685  85.716  41.515  0.00  0.00    +0.012 C 
ATOM     39  C   UNL     1      47.740  85.297  42.966  0.00  0.00    +0.110 C 
ENDBRANCH  36  39
ENDBRANCH  35  36
ENDBRANCH   1  35
BRANCH  16  40
ATOM     40  O   UNL     1      40.962  75.444  38.265  0.00  0.00    -0.451 OA
BRANCH  40  41
ATOM     41  C   UNL     1      39.893  75.246  37.444  0.00  0.00    +0.317 C 
ATOM     42  O   UNL     1      39.258  76.219  36.987  0.00  0.00    -0.250 OA
ATOM     43  C   UNL     1      39.477  73.874  37.090  0.00  0.00    +0.121 C 
ENDBRANCH  40  41
ENDBRANCH  16  40
TORSDOF 9
REMARK  Name = Rapacuronium_bromide
REMARK  9 active torsions:
REMARK  status: ('A' for Active; 'I' for Inactive)
REMARK    1  A    between atoms: C_2  and  C_3
REMARK    2  A    between atoms: C_3  and  O_5
REMARK    3  A    between atoms: O_5  and  C_6
REMARK    4  A    between atoms: C_7  and  N_35
REMARK    5  A    between atoms: C_20  and  N_27
REMARK    6  A    between atoms: C_21  and  O_23
REMARK    7  A    between atoms: O_23  and  C_24
REMARK    8  A    between atoms: N_35  and  C_41
REMARK    9  A    between atoms: C_41  and  C_42
REMARK                            x       y       z     vdW  Elec       q    Type
REMARK                         _______ _______ _______ _____ _____    ______ ____
ROOT
ATOM      1 BR   UNL     1      45.494  79.019  40.836  0.00  0.00    +0.000 Br
ENDROOT
TORSDOF 0
