REMARK  Name = Rasagiline
REMARK  3 active torsions:
REMARK  status: ('A' for Active; 'I' for Inactive)
REMARK    1  A    between atoms: C_2  and  C_3
REMARK    2  A    between atoms: C_3  and  N_4
REMARK    3  A    between atoms: N_4  and  C_5
REMARK                            x       y       z     vdW  Elec       q    Type
REMARK                         _______ _______ _______ _____ _____    ______ ____
ROOT
ATOM      1  C   UNL     1      45.121  79.016  39.985  0.00  0.00    +0.096 C 
ATOM      2  C   UNL     1      45.288  78.350  41.280  0.00  0.00    +0.027 C 
ATOM      3  C   UNL     1      44.456  77.064  41.199  0.00  0.00    +0.028 C 
ATOM      4  C   UNL     1      43.505  77.422  40.084  0.00  0.00    -0.025 A 
ATOM      5  C   UNL     1      42.343  76.635  39.766  0.00  0.00    -0.005 A 
ATOM      6  C   UNL     1      41.645  77.236  38.701  0.00  0.00    -0.000 A 
ATOM      7  C   UNL     1      41.908  78.299  38.054  0.00  0.00    -0.000 A 
ATOM      8  C   UNL     1      43.116  79.117  38.386  0.00  0.00    -0.003 A 
ATOM      9  C   UNL     1      43.773  78.474  39.448  0.00  0.00    -0.010 A 
ENDROOT
BRANCH   1  10
ATOM     10  N   UNL     1      45.011  80.426  40.080  0.00  0.00    -0.201 NA
BRANCH  10  11
ATOM     11  C   UNL     1      46.225  81.150  40.294  0.00  0.00    +0.165 C 
BRANCH  11  13
ATOM     12  C   UNL     1      46.576  83.005  38.279  0.00  0.00    -0.013 C 
ATOM     13  C   UNL     1      46.399  82.094  39.267  0.00  0.00    -0.059 C 
ENDBRANCH  11  13
ENDBRANCH  10  11
ENDBRANCH   1  10
TORSDOF 3
