REMARK  Name = Regadenoson
REMARK  3 active torsions:
REMARK  status: ('A' for Active; 'I' for Inactive)
REMARK    1  A    between atoms: C_3  and  C_5
REMARK    2  A    between atoms: N_16  and  C1*_19
REMARK    3  A    between atoms: C4*_22  and  C5*_24
REMARK                            x       y       z     vdW  Elec       q    Type
REMARK                         _______ _______ _______ _____ _____    ______ ____
ROOT
ATOM      1  C   UNL     1      49.772  81.136  44.315  0.00  0.00    +0.095 A 
ATOM      2  C   UNL     1      48.662  80.878  43.520  0.00  0.00    +0.110 A 
ATOM      3  N   UNL     1      48.764  81.523  42.347  0.00  0.00    -0.195 N 
ATOM      4  N   UNL     1      49.910  82.179  42.386  0.00  0.00    -0.161 NA
ATOM      5  C   UNL     1      50.551  81.977  43.549  0.00  0.00    +0.127 A 
ATOM      6  C   UNL     1      47.808  81.504  41.256  0.00  0.00    +0.256 A 
ATOM      7  N   UNL     1      47.926  82.369  40.240  0.00  0.00    -0.190 NA
ATOM      8  C   UNL     1      47.087  82.414  39.200  0.00  0.00    +0.193 A 
ATOM      9  C   UNL     1      46.036  81.508  39.181  0.00  0.00    +0.152 A 
ATOM     10  C   UNL     1      45.922  80.620  40.233  0.00  0.00    +0.171 A 
ATOM     11  N   UNL     1      46.800  80.626  41.251  0.00  0.00    -0.191 NA
ATOM     12  N   UNL     1      44.837  79.816  40.037  0.00  0.00    -0.269 N 
ATOM     13  C   UNL     1      44.309  80.228  38.871  0.00  0.00    +0.182 A 
ATOM     14  N   UNL     1      45.024  81.242  38.354  0.00  0.00    -0.219 NA
ATOM     15  N   UNL     1      47.188  83.306  38.129  0.00  0.00    -0.105 NA
ENDROOT
BRANCH  12  16
ATOM     16  C1* UNL     1      44.359  78.752  40.898  0.00  0.00    +0.241 C 
ATOM     17  C2* UNL     1      45.328  77.634  41.062  0.00  0.00    +0.234 C 
ATOM     18  C3* UNL     1      44.476  76.415  40.720  0.00  0.00    +0.216 C 
ATOM     19  C4* UNL     1      43.447  77.029  39.802  0.00  0.00    +0.183 C 
ATOM     20  O4* UNL     1      43.175  78.249  40.408  0.00  0.00    -0.331 OA
ATOM     21  O3* UNL     1      45.206  75.408  40.135  0.00  0.00    -0.218 OA
ATOM     22  O2* UNL     1      46.350  77.800  40.128  0.00  0.00    -0.216 OA
BRANCH  19  23
ATOM     23  C5* UNL     1      42.170  76.243  39.754  0.00  0.00    +0.214 C 
ATOM     24  O5* UNL     1      41.809  75.717  40.990  0.00  0.00    -0.218 OA
ENDBRANCH  19  23
ENDBRANCH  12  16
BRANCH   1  27
ATOM     25  C   UNL     1      51.630  80.425  47.601  0.00  0.00    +0.139 C 
ATOM     26  N   UNL     1      51.331  80.807  46.247  0.00  0.00    -0.200 NA
ATOM     27  C   UNL     1      50.062  80.642  45.647  0.00  0.00    +0.268 C 
ATOM     28  O   UNL     1      49.163  80.053  46.284  0.00  0.00    -0.268 OA
ENDBRANCH   1  27
TORSDOF 3
