REMARK  Name = Regorafenib
REMARK  6 active torsions:
REMARK  status: ('A' for Active; 'I' for Inactive)
REMARK    1  A    between atoms: C_3  and  C_5
REMARK    2  A    between atoms: C_9  and  O_11
REMARK    3  A    between atoms: O_11  and  C_12
REMARK    4  A    between atoms: C_15  and  N_18
REMARK    5  A    between atoms: N_21  and  C_22
REMARK    6  A    between atoms: C_24  and  C_29
REMARK                            x       y       z     vdW  Elec       q    Type
REMARK                         _______ _______ _______ _____ _____    ______ ____
ROOT
ATOM      1  C   UNL     1      43.190  77.641  40.423  0.00  0.00    +0.148 A 
ATOM      2  C   UNL     1      44.387  76.993  40.640  0.00  0.00    +0.068 A 
ATOM      3  C   UNL     1      45.576  77.719  40.742  0.00  0.00    +0.158 A 
ATOM      4  C   UNL     1      45.558  79.093  40.626  0.00  0.00    +0.103 A 
ATOM      5  C   UNL     1      44.349  79.715  40.410  0.00  0.00    +0.022 A 
ATOM      6  C   UNL     1      43.162  79.008  40.306  0.00  0.00    +0.039 A 
ATOM      7  F   UNL     1      46.758  77.103  40.955  0.00  0.00    -0.203 F 
ENDROOT
BRANCH   4   8
ATOM      8  N   UNL     1      46.766  79.835  40.730  0.00  0.00    -0.158 NA
ATOM      9  C   UNL     1      46.820  81.253  40.744  0.00  0.00    +0.348 C 
ATOM     10  O   UNL     1      47.114  81.825  39.645  0.00  0.00    -0.248 OA
ATOM     11  N   UNL     1      46.571  82.040  41.887  0.00  0.00    -0.161 NA
BRANCH  11  12
ATOM     12  C   UNL     1      47.618  82.894  42.384  0.00  0.00    +0.075 A 
ATOM     13  C   UNL     1      48.916  82.680  41.982  0.00  0.00    +0.021 A 
ATOM     14  C   UNL     1      49.930  83.483  42.444  0.00  0.00    +0.083 A 
ATOM     15  C   UNL     1      49.696  84.525  43.319  0.00  0.00    +0.062 A 
ATOM     16  C   UNL     1      48.395  84.735  43.719  0.00  0.00    +0.013 A 
ATOM     17  C   UNL     1      47.355  83.923  43.255  0.00  0.00    +0.018 A 
ATOM     18 CL   UNL     1      51.046  85.497  43.857  0.00  0.00    -0.082 Cl
BRANCH  14  19
ATOM     19  C   UNL     1      51.320  83.245  42.006  0.00  0.00    +0.419 C 
ATOM     20  F   UNL     1      51.746  84.325  41.263  0.00  0.00    -0.166 F 
ATOM     21  F   UNL     1      51.436  82.074  41.287  0.00  0.00    -0.166 F 
ATOM     22  F   UNL     1      52.109  83.175  43.160  0.00  0.00    -0.166 F 
ENDBRANCH  14  19
ENDBRANCH  11  12
ENDBRANCH   4   8
BRANCH   1  23
ATOM     23  O   UNL     1      42.009  76.919  40.321  0.00  0.00    -0.453 OA
BRANCH  23  28
ATOM     24  C   UNL     1      39.574  76.090  37.705  0.00  0.00    +0.139 A 
ATOM     25  N   UNL     1      40.135  76.716  36.681  0.00  0.00    -0.239 NA
ATOM     26  C   UNL     1      41.298  77.419  36.782  0.00  0.00    +0.102 A 
ATOM     27  C   UNL     1      41.896  77.464  38.021  0.00  0.00    +0.058 A 
ATOM     28  C   UNL     1      41.344  76.825  39.112  0.00  0.00    +0.149 A 
ATOM     29  C   UNL     1      40.164  76.131  38.938  0.00  0.00    +0.061 A 
BRANCH  24  32
ATOM     30  C   UNL     1      36.623  74.366  35.968  0.00  0.00    +0.139 C 
ATOM     31  N   UNL     1      37.739  75.259  36.215  0.00  0.00    -0.198 NA
ATOM     32  C   UNL     1      38.334  75.360  37.521  0.00  0.00    +0.283 C 
ATOM     33  O   UNL     1      37.723  74.789  38.461  0.00  0.00    -0.267 OA
ENDBRANCH  24  32
ENDBRANCH  23  28
ENDBRANCH   1  23
TORSDOF 6
