REMARK  Name = Relugolix
REMARK  8 active torsions:
REMARK  status: ('A' for Active; 'I' for Inactive)
REMARK    1  A    between atoms: N_2  and  C_4
REMARK    2  A    between atoms: C_4  and  C_5
REMARK    3  A    between atoms: C_6  and  C_33
REMARK    4  A    between atoms: N_15  and  C_16
REMARK    5  A    between atoms: C_16  and  C_17
REMARK    6  A    between atoms: C_28  and  O_31
REMARK    7  A    between atoms: C_36  and  N_39
REMARK    8  A    between atoms: N_42  and  O_43
REMARK                            x       y       z     vdW  Elec       q    Type
REMARK                         _______ _______ _______ _____ _____    ______ ____
ROOT
ATOM      1  C   UNL     1      45.293  79.025  40.166  0.00  0.00    +0.006 A 
ATOM      2  C   UNL     1      45.144  78.243  41.165  0.00  0.00    +0.028 A 
ATOM      3  S   UNL     1      46.410  78.827  42.242  0.00  0.00    -0.070 S 
ATOM      4  C   UNL     1      47.059  80.093  41.175  0.00  0.00    +0.098 A 
ATOM      5  C   UNL     1      46.204  79.931  40.071  0.00  0.00    +0.077 A 
ATOM      6  C   UNL     1      46.365  80.984  39.107  0.00  0.00    +0.271 A 
ATOM      7  O   UNL     1      45.660  80.985  38.031  0.00  0.00    -0.266 OA
ATOM      8  N   UNL     1      47.217  81.907  39.324  0.00  0.00    -0.209 N 
ATOM      9  C   UNL     1      48.046  82.031  40.401  0.00  0.00    +0.339 A 
ATOM     10  O   UNL     1      48.866  82.940  40.598  0.00  0.00    -0.246 OA
ATOM     11  N   UNL     1      47.928  81.070  41.337  0.00  0.00    -0.271 N 
ATOM     12  C   UNL     1      47.258  83.023  38.329  0.00  0.00    +0.175 A 
ATOM     13  N   UNL     1      47.654  82.732  37.093  0.00  0.00    -0.127 NA
ATOM     14  N   UNL     1      48.333  83.703  36.416  0.00  0.00    -0.109 NA
ATOM     15  C   UNL     1      48.498  84.822  36.985  0.00  0.00    +0.244 A 
ATOM     16  C   UNL     1      48.099  85.198  38.264  0.00  0.00    +0.062 A 
ATOM     17  C   UNL     1      47.487  84.196  38.973  0.00  0.00    +0.044 A 
ENDROOT
BRANCH   2  18
ATOM     18  C   UNL     1      44.275  77.129  41.535  0.00  0.00    +0.006 A 
ATOM     19  C   UNL     1      43.885  76.296  40.463  0.00  0.00    +0.002 A 
ATOM     20  C   UNL     1      43.051  75.292  40.590  0.00  0.00    +0.017 A 
ATOM     21  C   UNL     1      42.503  74.978  41.821  0.00  0.00    +0.075 A 
ATOM     22  C   UNL     1      42.819  75.801  42.884  0.00  0.00    +0.017 A 
ATOM     23  C   UNL     1      43.696  76.885  42.765  0.00  0.00    +0.002 A 
BRANCH  21  24
ATOM     24  N   UNL     1      41.650  73.841  41.909  0.00  0.00    -0.159 NA
ATOM     25  C   UNL     1      41.144  73.339  43.143  0.00  0.00    +0.369 C 
ATOM     26  O   UNL     1      41.383  73.911  44.216  0.00  0.00    -0.247 OA
ATOM     27  N   UNL     1      40.313  72.183  43.086  0.00  0.00    -0.042 NA
BRANCH  27  28
ATOM     28  O   UNL     1      39.019  72.216  43.591  0.00  0.00    -0.240 OA
ATOM     29  C   UNL     1      38.772  70.825  43.810  0.00  0.00    +0.208 C 
ENDBRANCH  27  28
ENDBRANCH  21  24
ENDBRANCH   2  18
BRANCH  15  30
ATOM     30  O   UNL     1      49.224  85.992  36.483  0.00  0.00    -0.455 OA
ATOM     31  C   UNL     1      49.510  85.654  35.095  0.00  0.00    +0.254 C 
ENDBRANCH  15  30
BRANCH   1  32
ATOM     32  C   UNL     1      43.925  79.338  39.370  0.00  0.00    +0.100 C 
BRANCH  32  34
ATOM     33  C   UNL     1      44.782  77.772  37.584  0.00  0.00    +0.090 C 
ATOM     34  N   UNL     1      43.858  78.626  38.135  0.00  0.00    -0.267 NA
ATOM     35  C   UNL     1      42.493  78.322  37.759  0.00  0.00    +0.090 C 
ENDBRANCH  32  34
ENDBRANCH   1  32
BRANCH  11  36
ATOM     36  C   UNL     1      48.809  81.057  42.521  0.00  0.00    +0.142 C 
BRANCH  36  37
ATOM     37  C   UNL     1      49.197  82.463  42.918  0.00  0.00    +0.055 A 
ATOM     38  C   UNL     1      50.443  82.943  43.026  0.00  0.00    +0.140 A 
ATOM     39  C   UNL     1      50.727  84.319  43.174  0.00  0.00    +0.030 A 
ATOM     40  C   UNL     1      49.642  85.179  43.261  0.00  0.00    +0.005 A 
ATOM     41  C   UNL     1      48.362  84.729  43.226  0.00  0.00    +0.030 A 
ATOM     42  C   UNL     1      48.136  83.367  43.037  0.00  0.00    +0.140 A 
ATOM     43  F   UNL     1      46.879  82.920  43.071  0.00  0.00    -0.204 F 
ATOM     44  F   UNL     1      51.497  82.111  43.063  0.00  0.00    -0.204 F 
ENDBRANCH  36  37
ENDBRANCH  11  36
TORSDOF 8
