REMARK  Name = Relvar/Breo
REMARK  22 active torsions:
REMARK  status: ('A' for Active; 'I' for Inactive)
REMARK    1  A    between atoms: C_19  and  C_20
REMARK    2  A    between atoms: C_19  and  O_25
REMARK    3  A    between atoms: C_20  and  S_22
REMARK    4  A    between atoms: S_22  and  C_23
REMARK    5  A    between atoms: O_25  and  C_26
REMARK    6  A    between atoms: C_26  and  C_28
REMARK    7  A    between atoms: C_41  and  C_45
REMARK    8  A    between atoms: C_45  and  O_46
REMARK    9  A    between atoms: O_46  and  C_47
REMARK   10  A    between atoms: C_47  and  C_48
REMARK   11  A    between atoms: C_48  and  O_49
REMARK   12  A    between atoms: O_49  and  C_50
REMARK   13  A    between atoms: C_50  and  C_51
REMARK   14  A    between atoms: C_51  and  C_52
REMARK   15  A    between atoms: C_52  and  C_53
REMARK   16  A    between atoms: C_53  and  C_54
REMARK   17  A    between atoms: C_54  and  C_55
REMARK   18  A    between atoms: C_55  and  N_56
REMARK   19  A    between atoms: N_56  and  C_57
REMARK   20  A    between atoms: C_57  and  C_58
REMARK   21  A    between atoms: C_58  and  C_59
REMARK   22  A    between atoms: C_61  and  C_66
REMARK                            x       y       z     vdW  Elec       q    Type
REMARK                         _______ _______ _______ _____ _____    ______ ____
ROOT
ATOM      1  C   UNL     1      41.406  72.564  40.671  0.00  0.00    +0.004 C 
ATOM      2  C   UNL     1      42.300  73.684  41.015  0.00  0.00    +0.045 C 
ATOM      3  C   UNL     1      42.918  74.376  39.769  0.00  0.00    +0.004 C 
ATOM      4  C   UNL     1      43.496  75.568  40.465  0.00  0.00    +0.007 C 
ATOM      5  C   UNL     1      43.813  76.760  39.661  0.00  0.00    +0.036 C 
ATOM      6  C   UNL     1      42.736  77.443  38.930  0.00  0.00    +0.042 C 
ATOM      7  C   UNL     1      43.367  78.524  38.032  0.00  0.00    +0.180 C 
ATOM      8  C   UNL     1      44.263  79.381  38.877  0.00  0.00    -0.003 C 
ATOM      9  C   UNL     1      44.161  80.677  38.748  0.00  0.00    +0.036 C 
ATOM     10  C   UNL     1      44.976  81.605  39.518  0.00  0.00    +0.195 C 
ATOM     11  O   UNL     1      44.880  82.854  39.395  0.00  0.00    -0.287 OA
ATOM     12  C   UNL     1      45.921  80.987  40.450  0.00  0.00    +0.038 C 
ATOM     13  C   UNL     1      46.025  79.693  40.578  0.00  0.00    -0.017 C 
ATOM     14  C   UNL     1      45.221  78.754  39.811  0.00  0.00    +0.066 C 
ATOM     15  C   UNL     1      44.531  77.692  40.627  0.00  0.00    +0.168 C 
ATOM     16  C   UNL     1      43.602  78.167  41.660  0.00  0.00    +0.182 C 
ATOM     17  C   UNL     1      42.516  77.223  42.083  0.00  0.00    +0.039 C 
ATOM     18  C   UNL     1      42.688  75.812  41.729  0.00  0.00    +0.044 C 
ATOM     19  C   UNL     1      41.481  74.966  41.461  0.00  0.00    +0.196 C 
ATOM     20  C   UNL     1      43.469  75.138  42.877  0.00  0.00    +0.004 C 
ATOM     21  O   UNL     1      44.361  78.649  42.736  0.00  0.00    -0.220 OA
ATOM     22  F   UNL     1      45.545  76.935  41.218  0.00  0.00    -0.237 F 
ATOM     23  C   UNL     1      46.247  77.980  38.934  0.00  0.00    +0.011 C 
ATOM     24  F   UNL     1      42.367  79.331  37.538  0.00  0.00    -0.233 F 
ENDROOT
BRANCH  19  25
ATOM     25  C   UNL     1      40.557  74.697  42.527  0.00  0.00    +0.237 C 
ATOM     26  O   UNL     1      39.514  74.064  42.210  0.00  0.00    -0.281 OA
BRANCH  25  27
ATOM     27  S   UNL     1      40.644  75.118  44.245  0.00  0.00    -0.036 S 
BRANCH  27  28
ATOM     28  C   UNL     1      39.420  74.245  45.250  0.00  0.00    +0.258 C 
ATOM     29  F   UNL     1      39.190  73.012  44.654  0.00  0.00    -0.221 F 
ENDBRANCH  27  28
ENDBRANCH  25  27
ENDBRANCH  19  25
BRANCH  19  30
ATOM     30  O   UNL     1      40.818  75.224  40.223  0.00  0.00    -0.443 OA
BRANCH  30  31
ATOM     31  C   UNL     1      39.870  76.137  39.912  0.00  0.00    +0.376 C 
ATOM     32  O   UNL     1      39.456  76.903  40.810  0.00  0.00    -0.241 OA
BRANCH  31  33
ATOM     33  C   UNL     1      39.296  76.278  38.560  0.00  0.00    +0.221 A 
ATOM     34  C   UNL     1      38.150  76.975  38.283  0.00  0.00    +0.047 A 
ATOM     35  C   UNL     1      37.904  76.897  36.906  0.00  0.00    +0.044 A 
ATOM     36  C   UNL     1      38.967  76.127  36.436  0.00  0.00    +0.180 A 
ATOM     37  O   UNL     1      39.741  75.797  37.442  0.00  0.00    -0.444 OA
ENDBRANCH  31  33
ENDBRANCH  30  31
ENDBRANCH  19  30
TORSDOF 6
REMARK  Name = Relvar/Breo
REMARK  22 active torsions:
REMARK  status: ('A' for Active; 'I' for Inactive)
REMARK    1  A    between atoms: C_19  and  C_20
REMARK    2  A    between atoms: C_19  and  O_25
REMARK    3  A    between atoms: C_20  and  S_22
REMARK    4  A    between atoms: S_22  and  C_23
REMARK    5  A    between atoms: O_25  and  C_26
REMARK    6  A    between atoms: C_26  and  C_28
REMARK    7  A    between atoms: C_41  and  C_45
REMARK    8  A    between atoms: C_45  and  O_46
REMARK    9  A    between atoms: O_46  and  C_47
REMARK   10  A    between atoms: C_47  and  C_48
REMARK   11  A    between atoms: C_48  and  O_49
REMARK   12  A    between atoms: O_49  and  C_50
REMARK   13  A    between atoms: C_50  and  C_51
REMARK   14  A    between atoms: C_51  and  C_52
REMARK   15  A    between atoms: C_52  and  C_53
REMARK   16  A    between atoms: C_53  and  C_54
REMARK   17  A    between atoms: C_54  and  C_55
REMARK   18  A    between atoms: C_55  and  N_56
REMARK   19  A    between atoms: N_56  and  C_57
REMARK   20  A    between atoms: C_57  and  C_58
REMARK   21  A    between atoms: C_58  and  C_59
REMARK   22  A    between atoms: C_61  and  C_66
REMARK                            x       y       z     vdW  Elec       q    Type
REMARK                         _______ _______ _______ _____ _____    ______ ____
ROOT
ATOM      1  C   UNL     1      44.133  75.645  41.151  0.00  0.00    +0.003 C 
ENDROOT
BRANCH   1   2
ATOM      2  C   UNL     1      42.748  75.616  40.493  0.00  0.00    +0.002 C 
BRANCH   2   3
ATOM      3  C   UNL     1      42.636  74.491  39.548  0.00  0.00    +0.019 C 
BRANCH   3   4
ATOM      4  C   UNL     1      41.582  74.610  38.500  0.00  0.00    +0.089 C 
BRANCH   4   5
ATOM      5  N   UNL     1      41.382  73.475  37.734  0.00  0.00    -0.215 NA
BRANCH   5   6
ATOM      6  C   UNL     1      40.140  72.947  37.393  0.00  0.00    +0.126 C 
BRANCH   6   7
ATOM      7  C   UNL     1      40.101  72.572  35.922  0.00  0.00    +0.192 C 
ATOM      8  O   UNL     1      40.588  73.660  35.162  0.00  0.00    -0.217 OA
BRANCH   7   9
ATOM      9  C   UNL     1      38.803  72.121  35.426  0.00  0.00    +0.009 A 
ATOM     10  C   UNL     1      37.767  71.845  36.270  0.00  0.00    -0.000 A 
ATOM     11  C   UNL     1      36.552  71.424  35.718  0.00  0.00    +0.049 A 
ATOM     12  C   UNL     1      36.398  71.287  34.355  0.00  0.00    +0.194 A 
ATOM     13  C   UNL     1      37.458  71.571  33.526  0.00  0.00    +0.042 A 
ATOM     14  C   UNL     1      38.660  71.986  34.033  0.00  0.00    +0.001 A 
ATOM     15  O   UNL     1      35.183  70.867  33.828  0.00  0.00    -0.287 OA
BRANCH  11  16
ATOM     16  C   UNL     1      35.402  71.119  36.605  0.00  0.00    +0.212 C 
ATOM     17  O   UNL     1      34.205  71.228  35.874  0.00  0.00    -0.215 OA
ENDBRANCH  11  16
ENDBRANCH   7   9
ENDBRANCH   6   7
ENDBRANCH   5   6
ENDBRANCH   4   5
ENDBRANCH   3   4
ENDBRANCH   2   3
ENDBRANCH   1   2
BRANCH   1  18
ATOM     18  C   UNL     1      44.535  77.056  41.447  0.00  0.00    +0.032 C 
BRANCH  18  19
ATOM     19  C   UNL     1      45.930  77.124  41.949  0.00  0.00    +0.142 C 
BRANCH  19  20
ATOM     20  O   UNL     1      46.533  78.362  41.715  0.00  0.00    -0.351 OA
BRANCH  20  21
ATOM     21  C   UNL     1      47.459  78.712  42.645  0.00  0.00    +0.174 C 
BRANCH  21  22
ATOM     22  C   UNL     1      48.654  79.469  42.214  0.00  0.00    +0.175 C 
BRANCH  22  23
ATOM     23  O   UNL     1      48.801  80.692  42.867  0.00  0.00    -0.346 OA
BRANCH  23  24
ATOM     24  C   UNL     1      50.014  81.231  42.429  0.00  0.00    +0.170 C 
BRANCH  24  28
ATOM     25  C   UNL     1      51.060  85.029  43.999  0.00  0.00    +0.002 A 
ATOM     26  C   UNL     1      49.848  84.442  44.363  0.00  0.00    +0.011 A 
ATOM     27  C   UNL     1      49.493  83.212  43.861  0.00  0.00    +0.057 A 
ATOM     28  C   UNL     1      50.320  82.558  43.005  0.00  0.00    +0.028 A 
ATOM     29  C   UNL     1      51.525  83.152  42.649  0.00  0.00    +0.057 A 
ATOM     30  C   UNL     1      51.930  84.380  43.122  0.00  0.00    +0.011 A 
ATOM     31 CL   UNL     1      52.592  82.299  41.539  0.00  0.00    -0.082 Cl
ATOM     32 CL   UNL     1      47.971  82.511  44.338  0.00  0.00    -0.082 Cl
ENDBRANCH  24  28
ENDBRANCH  23  24
ENDBRANCH  22  23
ENDBRANCH  21  22
ENDBRANCH  20  21
ENDBRANCH  19  20
ENDBRANCH  18  19
ENDBRANCH   1  18
TORSDOF 16
