REMARK  Name = Remdesivir
REMARK  15 active torsions:
REMARK  status: ('A' for Active; 'I' for Inactive)
REMARK    1  A    between atoms: C_2  and  C_3
REMARK    2  A    between atoms: C_3  and  C_4
REMARK    3  A    between atoms: C_3  and  C_6
REMARK    4  A    between atoms: C_6  and  O_7
REMARK    5  A    between atoms: O_7  and  C_8
REMARK    6  A    between atoms: C_8  and  C_10
REMARK    7  A    between atoms: C_10  and  N_12
REMARK    8  A    between atoms: N_12  and  P_13
REMARK    9  A    between atoms: P_13  and  O_15
REMARK   10  A    between atoms: P_13  and  O_36
REMARK   11  A    between atoms: O_15  and  C_16
REMARK   12  A    between atoms: C_16  and  C_17
REMARK   13  A    between atoms: C_20  and  C_22
REMARK   14  A    between atoms: C_20  and  C_24
REMARK   15  A    between atoms: O_36  and  C_37
REMARK                            x       y       z     vdW  Elec       q    Type
REMARK                         _______ _______ _______ _____ _____    ______ ____
ROOT
ATOM      1  P   UNL     1      49.897  79.773  43.713  0.00  0.00    +0.480 P 
ATOM      2  O   UNL     1      49.584  80.032  42.244  0.00  0.00    -0.227 OA
ENDROOT
BRANCH   1   3
ATOM      3  N   UNL     1      51.638  79.724  43.873  0.00  0.00    -0.101 NA
BRANCH   3   4
ATOM      4  C   UNL     1      52.051  80.220  45.161  0.00  0.00    +0.183 C 
ATOM      5  C   UNL     1      53.455  80.796  45.025  0.00  0.00    +0.031 C 
BRANCH   4   6
ATOM      6  C   UNL     1      52.052  79.073  46.126  0.00  0.00    +0.334 C 
ATOM      7  O   UNL     1      51.368  79.150  47.169  0.00  0.00    -0.249 OA
BRANCH   6   8
ATOM      8  O   UNL     1      52.774  77.951  45.901  0.00  0.00    -0.448 OA
BRANCH   8   9
ATOM      9  C   UNL     1      52.915  76.783  46.600  0.00  0.00    +0.208 C 
BRANCH   9  10
ATOM     10  C   UNL     1      53.831  75.747  46.078  0.00  0.00    +0.044 C 
BRANCH  10  12
ATOM     11  C   UNL     1      52.336  73.868  45.592  0.00  0.00    +0.000 C 
ATOM     12  C   UNL     1      53.238  74.882  44.965  0.00  0.00    +0.004 C 
ENDBRANCH  10  12
BRANCH  10  13
ATOM     13  C   UNL     1      55.214  76.184  45.755  0.00  0.00    +0.004 C 
ATOM     14  C   UNL     1      56.229  75.432  46.659  0.00  0.00    +0.000 C 
ENDBRANCH  10  13
ENDBRANCH   9  10
ENDBRANCH   8   9
ENDBRANCH   6   8
ENDBRANCH   4   6
ENDBRANCH   3   4
ENDBRANCH   1   3
BRANCH   1  15
ATOM     15  O   UNL     1      49.224  78.319  44.172  0.00  0.00    -0.270 OA
BRANCH  15  16
ATOM     16  C   UNL     1      47.834  78.311  44.075  0.00  0.00    +0.186 C 
BRANCH  16  17
ATOM     17  C   UNL     1      47.375  77.461  42.909  0.00  0.00    +0.180 C 
ATOM     18  C   UNL     1      45.854  77.382  43.002  0.00  0.00    +0.215 C 
ATOM     19  C   UNL     1      45.500  78.653  42.215  0.00  0.00    +0.228 C 
ATOM     20  C   UNL     1      46.535  78.518  41.102  0.00  0.00    +0.236 C 
ATOM     21  O   UNL     1      47.670  78.118  41.748  0.00  0.00    -0.335 OA
ATOM     22  O   UNL     1      44.210  78.626  41.747  0.00  0.00    -0.216 OA
ATOM     23  O   UNL     1      45.404  77.442  44.301  0.00  0.00    -0.218 OA
BRANCH  20  24
ATOM     24  C   UNL     1      46.679  79.816  40.402  0.00  0.00    +0.101 A 
ATOM     25  C   UNL     1      47.737  80.677  40.597  0.00  0.00    +0.020 A 
ATOM     26  C   UNL     1      47.477  81.761  39.752  0.00  0.00    +0.023 A 
ATOM     27  C   UNL     1      46.286  81.498  39.098  0.00  0.00    +0.117 A 
ATOM     28  N   UNL     1      45.806  80.293  39.510  0.00  0.00    -0.226 N 
ATOM     29  N   UNL     1      44.665  79.880  38.982  0.00  0.00    -0.142 NA
ATOM     30  C   UNL     1      43.976  80.587  38.074  0.00  0.00    +0.221 A 
ATOM     31  N   UNL     1      44.432  81.789  37.648  0.00  0.00    -0.203 NA
ATOM     32  C   UNL     1      45.584  82.239  38.160  0.00  0.00    +0.189 A 
ATOM     33  N   UNL     1      46.060  83.503  37.710  0.00  0.00    -0.106 NA
ENDBRANCH  20  24
BRANCH  20  34
ATOM     34  C   UNL     1      46.065  77.493  40.140  0.00  0.00    +0.108 C 
ATOM     35  N   UNL     1      45.715  76.685  39.383  0.00  0.00    -0.193 NA
ENDBRANCH  20  34
ENDBRANCH  16  17
ENDBRANCH  15  16
ENDBRANCH   1  15
BRANCH   1  36
ATOM     36  O   UNL     1      49.265  81.097  44.596  0.00  0.00    -0.411 OA
BRANCH  36  37
ATOM     37  C   UNL     1      49.260  82.393  44.142  0.00  0.00    +0.148 A 
ATOM     38  C   UNL     1      50.392  83.158  44.351  0.00  0.00    +0.037 A 
ATOM     39  C   UNL     1      50.392  84.454  43.900  0.00  0.00    +0.003 A 
ATOM     40  C   UNL     1      49.278  84.976  43.249  0.00  0.00    +0.000 A 
ATOM     41  C   UNL     1      48.155  84.202  43.047  0.00  0.00    +0.003 A 
ATOM     42  C   UNL     1      48.139  82.885  43.499  0.00  0.00    +0.037 A 
ENDBRANCH  36  37
ENDBRANCH   1  36
TORSDOF 15
