REMARK  Name = Remifentanil
REMARK  9 active torsions:
REMARK  status: ('A' for Active; 'I' for Inactive)
REMARK    1  A    between atoms: C_2  and  C_3
REMARK    2  A    between atoms: N_5  and  C_6
REMARK    3  A    between atoms: N_5  and  C_12
REMARK    4  A    between atoms: C_12  and  C_24
REMARK    5  A    between atoms: N_15  and  C_18
REMARK    6  A    between atoms: C_18  and  C_19
REMARK    7  A    between atoms: C_19  and  C_20
REMARK    8  A    between atoms: C_20  and  O_22
REMARK    9  A    between atoms: C_24  and  O_26
REMARK                            x       y       z     vdW  Elec       q    Type
REMARK                         _______ _______ _______ _____ _____    ______ ____
ROOT
ATOM      1  C   UNL     1      48.700  81.808  41.504  0.00  0.00    +0.156 C 
ATOM      2  C   UNL     1      48.123  80.407  41.511  0.00  0.00    +0.047 C 
ATOM      3  C   UNL     1      47.588  79.965  40.173  0.00  0.00    +0.074 C 
ATOM      4  N   UNL     1      46.547  80.901  39.775  0.00  0.00    -0.272 NA
ATOM      5  C   UNL     1      47.154  82.205  39.619  0.00  0.00    +0.074 C 
ATOM      6  C   UNL     1      47.750  82.751  40.879  0.00  0.00    +0.047 C 
ENDROOT
BRANCH   1   9
ATOM      7  C   UNL     1      49.362  81.241  43.907  0.00  0.00    +0.230 C 
ATOM      8  O   UNL     1      49.538  80.012  43.536  0.00  0.00    -0.275 OA
ATOM      9  N   UNL     1      49.008  82.140  42.889  0.00  0.00    -0.252 N 
BRANCH   9  10
ATOM     10  C   UNL     1      48.890  83.530  43.261  0.00  0.00    +0.054 A 
ATOM     11  C   UNL     1      47.670  84.126  43.461  0.00  0.00    +0.015 A 
ATOM     12  C   UNL     1      47.615  85.467  43.817  0.00  0.00    +0.001 A 
ATOM     13  C   UNL     1      48.736  86.240  43.982  0.00  0.00    +0.000 A 
ATOM     14  C   UNL     1      49.967  85.644  43.782  0.00  0.00    +0.001 A 
ATOM     15  C   UNL     1      50.031  84.314  43.428  0.00  0.00    +0.015 A 
ENDBRANCH   9  10
BRANCH   7  17
ATOM     16  C   UNL     1      49.816  80.250  46.130  0.00  0.00    +0.010 C 
ATOM     17  C   UNL     1      49.554  81.523  45.336  0.00  0.00    +0.086 C 
ENDBRANCH   7  17
ENDBRANCH   1   9
BRANCH   1  18
ATOM     18  C   UNL     1      49.996  81.823  40.786  0.00  0.00    +0.334 C 
ATOM     19  O   UNL     1      50.515  80.787  40.329  0.00  0.00    -0.248 OA
BRANCH  18  20
ATOM     20  O   UNL     1      50.671  83.013  40.609  0.00  0.00    -0.443 OA
ATOM     21  C   UNL     1      52.084  83.077  40.456  0.00  0.00    +0.256 C 
ENDBRANCH  18  20
ENDBRANCH   1  18
BRANCH   4  22
ATOM     22  C   UNL     1      45.947  80.547  38.523  0.00  0.00    +0.084 C 
BRANCH  22  23
ATOM     23  C   UNL     1      44.466  80.646  38.480  0.00  0.00    +0.127 C 
BRANCH  23  24
ATOM     24  C   UNL     1      43.903  79.348  38.951  0.00  0.00    +0.319 C 
ATOM     25  O   UNL     1      43.410  78.505  38.150  0.00  0.00    -0.250 OA
BRANCH  24  26
ATOM     26  O   UNL     1      43.892  79.000  40.295  0.00  0.00    -0.444 OA
ATOM     27  C   UNL     1      43.394  77.785  40.793  0.00  0.00    +0.256 C 
ENDBRANCH  24  26
ENDBRANCH  23  24
ENDBRANCH  22  23
ENDBRANCH   4  22
TORSDOF 9
