REMARK  Name = Remikiren
REMARK  16 active torsions:
REMARK  status: ('A' for Active; 'I' for Inactive)
REMARK    1  A    between atoms: C_2  and  S_5
REMARK    2  A    between atoms: S_5  and  C_8
REMARK    3  A    between atoms: C_8  and  C_9
REMARK    4  A    between atoms: C_9  and  C_10
REMARK    5  A    between atoms: C_9  and  C_17
REMARK    6  A    between atoms: C_10  and  C_11
REMARK    7  A    between atoms: N_19  and  C_20
REMARK    8  A    between atoms: C_20  and  C_21
REMARK    9  A    between atoms: C_20  and  C_27
REMARK   10  A    between atoms: C_21  and  C_22
REMARK   11  A    between atoms: N_29  and  C_30
REMARK   12  A    between atoms: C_30  and  C_31
REMARK   13  A    between atoms: C_30  and  C_38
REMARK   14  A    between atoms: C_31  and  C_32
REMARK   15  A    between atoms: C_38  and  C_39
REMARK   16  A    between atoms: C_39  and  C_40
REMARK                            x       y       z     vdW  Elec       q    Type
REMARK                         _______ _______ _______ _____ _____    ______ ____
ROOT
ATOM      1  C   UNL     1      45.074  79.640  41.311  0.00  0.00    +0.179 C 
ENDROOT
BRANCH   1   2
ATOM      2  C   UNL     1      46.572  79.714  41.267  0.00  0.00    +0.262 C 
ATOM      3  O   UNL     1      47.167  78.857  40.564  0.00  0.00    -0.271 OA
ATOM      4  N   UNL     1      47.322  80.687  41.974  0.00  0.00    -0.203 NA
BRANCH   4   5
ATOM      5  C   UNL     1      48.765  80.747  41.976  0.00  0.00    +0.128 C 
BRANCH   5   6
ATOM      6  C   UNL     1      49.458  79.457  42.104  0.00  0.00    +0.202 C 
ATOM      7  O   UNL     1      48.605  78.415  41.712  0.00  0.00    -0.219 OA
BRANCH   6   8
ATOM      8  C   UNL     1      50.856  79.314  41.634  0.00  0.00    +0.184 C 
ATOM      9  O   UNL     1      51.714  80.141  42.358  0.00  0.00    -0.220 OA
BRANCH   8  10
ATOM     10  C   UNL     1      51.285  77.876  42.056  0.00  0.00    +0.033 C 
ATOM     11  C   UNL     1      52.636  77.657  42.584  0.00  0.00    +0.003 C 
ATOM     12  C   UNL     1      52.266  77.178  41.198  0.00  0.00    +0.003 C 
ENDBRANCH   8  10
ENDBRANCH   6   8
ENDBRANCH   5   6
BRANCH   5  13
ATOM     13  C   UNL     1      49.355  81.973  42.564  0.00  0.00    +0.024 C 
BRANCH  13  14
ATOM     14  C   UNL     1      48.736  82.524  43.781  0.00  0.00    +0.002 C 
ATOM     15  C   UNL     1      49.301  83.712  44.450  0.00  0.00    +0.000 C 
ATOM     16  C   UNL     1      49.282  84.984  43.646  0.00  0.00    +0.000 C 
ATOM     17  C   UNL     1      47.949  85.255  43.028  0.00  0.00    +0.000 C 
ATOM     18  C   UNL     1      47.179  84.054  42.609  0.00  0.00    +0.000 C 
ATOM     19  C   UNL     1      47.244  82.875  43.518  0.00  0.00    +0.000 C 
ENDBRANCH  13  14
ENDBRANCH   5  13
ENDBRANCH   4   5
ENDBRANCH   1   2
BRANCH   1  22
ATOM     20  C   UNL     1      43.279  77.852  41.037  0.00  0.00    +0.243 C 
ATOM     21  O   UNL     1      42.396  78.752  41.311  0.00  0.00    -0.273 OA
ATOM     22  N   UNL     1      44.623  78.291  41.117  0.00  0.00    -0.197 NA
BRANCH  20  23
ATOM     23  C   UNL     1      42.868  76.485  40.668  0.00  0.00    +0.106 C 
BRANCH  23  24
ATOM     24  C   UNL     1      42.736  75.593  41.836  0.00  0.00    +0.037 C 
BRANCH  24  25
ATOM     25  C   UNL     1      43.916  75.345  42.663  0.00  0.00    -0.022 A 
ATOM     26  C   UNL     1      43.996  75.966  43.904  0.00  0.00    -0.004 A 
ATOM     27  C   UNL     1      45.097  75.838  44.733  0.00  0.00    -0.000 A 
ATOM     28  C   UNL     1      46.136  75.062  44.288  0.00  0.00    -0.000 A 
ATOM     29  C   UNL     1      46.065  74.450  43.074  0.00  0.00    -0.000 A 
ATOM     30  C   UNL     1      44.975  74.580  42.260  0.00  0.00    -0.004 A 
ENDBRANCH  24  25
ENDBRANCH  23  24
BRANCH  23  31
ATOM     31  C   UNL     1      41.549  76.640  39.927  0.00  0.00    +0.160 C 
BRANCH  31  32
ATOM     32  S   UNL     1      41.599  76.457  38.210  0.00  0.00    -0.013 S 
ATOM     33  O   UNL     1      42.194  75.074  37.934  0.00  0.00    -0.173 OA
ATOM     34  O   UNL     1      42.540  77.402  37.516  0.00  0.00    -0.173 OA
BRANCH  32  36
ATOM     35  C   UNL     1      39.594  77.962  37.432  0.00  0.00    +0.024 C 
ATOM     36  C   UNL     1      40.074  76.498  37.357  0.00  0.00    +0.111 C 
ATOM     37  C   UNL     1      40.218  76.204  35.878  0.00  0.00    +0.024 C 
ATOM     38  C   UNL     1      38.966  75.690  37.983  0.00  0.00    +0.024 C 
ENDBRANCH  32  36
ENDBRANCH  31  32
ENDBRANCH  23  31
ENDBRANCH  20  23
ENDBRANCH   1  22
BRANCH   1  39
ATOM     39  C   UNL     1      44.393  80.690  40.548  0.00  0.00    +0.079 C 
BRANCH  39  40
ATOM     40  C   UNL     1      45.169  81.498  39.604  0.00  0.00    +0.082 A 
ATOM     41  C   UNL     1      46.505  81.514  39.298  0.00  0.00    +0.115 A 
ATOM     42  N   UNL     1      46.705  82.414  38.330  0.00  0.00    -0.221 NA
ATOM     43  C   UNL     1      45.522  82.960  38.026  0.00  0.00    +0.199 A 
ATOM     44  N   UNL     1      44.576  82.412  38.794  0.00  0.00    -0.227 NA
ENDBRANCH  39  40
ENDBRANCH   1  39
TORSDOF 16
