REMARK  Name = Remimazolam
REMARK  5 active torsions:
REMARK  status: ('A' for Active; 'I' for Inactive)
REMARK    1  A    between atoms: C_14  and  C_23
REMARK    2  A    between atoms: C_16  and  C_17
REMARK    3  A    between atoms: C_17  and  C_18
REMARK    4  A    between atoms: C_18  and  C_19
REMARK    5  A    between atoms: C_19  and  O_21
REMARK                            x       y       z     vdW  Elec       q    Type
REMARK                         _______ _______ _______ _____ _____    ______ ____
ROOT
ATOM      1  C   UNL     1      49.048  81.764  39.107  0.00  0.00    +0.052 C 
ATOM      2  C   UNL     1      47.614  81.603  38.845  0.00  0.00    +0.062 A 
ATOM      3  C   UNL     1      46.932  81.808  37.634  0.00  0.00    +0.113 A 
ATOM      4  N   UNL     1      45.618  81.480  37.779  0.00  0.00    -0.227 NA
ATOM      5  C   UNL     1      45.456  81.081  39.027  0.00  0.00    +0.146 A 
ATOM      6  N   UNL     1      46.675  81.164  39.664  0.00  0.00    -0.296 N 
ATOM      7  C   UNL     1      46.921  80.843  41.038  0.00  0.00    +0.066 A 
ATOM      8  C   UNL     1      46.262  79.825  41.717  0.00  0.00    +0.035 A 
ATOM      9  C   UNL     1      46.566  79.603  43.023  0.00  0.00    +0.010 A 
ATOM     10  C   UNL     1      47.519  80.393  43.630  0.00  0.00    +0.035 A 
ATOM     11  C   UNL     1      48.169  81.415  42.920  0.00  0.00    +0.008 A 
ATOM     12  C   UNL     1      47.864  81.650  41.595  0.00  0.00    +0.018 A 
ATOM     13 BR   UNL     1      47.946  80.071  45.455  0.00  0.00    -0.049 Br
ATOM     14  C   UNL     1      45.215  78.933  41.213  0.00  0.00    +0.095 C 
ATOM     15  N   UNL     1      44.346  79.316  40.303  0.00  0.00    -0.263 NA
ATOM     16  C   UNL     1      44.185  80.592  39.604  0.00  0.00    +0.160 C 
ENDROOT
BRANCH  14  17
ATOM     17  C   UNL     1      45.153  77.608  41.758  0.00  0.00    +0.099 A 
ATOM     18  C   UNL     1      43.868  77.049  41.878  0.00  0.00    +0.021 A 
ATOM     19  C   UNL     1      43.685  75.769  42.332  0.00  0.00    +0.003 A 
ATOM     20  C   UNL     1      44.795  75.031  42.673  0.00  0.00    +0.021 A 
ATOM     21  C   UNL     1      46.053  75.596  42.550  0.00  0.00    +0.099 A 
ATOM     22  N   UNL     1      46.170  76.839  42.105  0.00  0.00    -0.242 NA
ENDBRANCH  14  17
BRANCH  16  23
ATOM     23  C   UNL     1      43.222  80.337  38.467  0.00  0.00    +0.044 C 
BRANCH  23  24
ATOM     24  C   UNL     1      42.787  78.900  38.381  0.00  0.00    +0.112 C 
BRANCH  24  25
ATOM     25  C   UNL     1      41.472  78.855  37.715  0.00  0.00    +0.317 C 
ATOM     26  O   UNL     1      40.617  79.753  37.896  0.00  0.00    -0.250 OA
BRANCH  25  27
ATOM     27  O   UNL     1      41.181  77.797  36.874  0.00  0.00    -0.444 OA
ATOM     28  C   UNL     1      39.836  77.664  36.394  0.00  0.00    +0.256 C 
ENDBRANCH  25  27
ENDBRANCH  24  25
ENDBRANCH  23  24
ENDBRANCH  16  23
TORSDOF 5
