REMARK  Name = Repirinast
REMARK  5 active torsions:
REMARK  status: ('A' for Active; 'I' for Inactive)
REMARK    1  A    between atoms: C_13  and  C_15
REMARK    2  A    between atoms: C_15  and  O_17
REMARK    3  A    between atoms: O_17  and  C_18
REMARK    4  A    between atoms: C_18  and  C_19
REMARK    5  A    between atoms: C_19  and  C_20
REMARK                            x       y       z     vdW  Elec       q    Type
REMARK                         _______ _______ _______ _____ _____    ______ ____
ROOT
ATOM      1  C   UNL     1      42.557  75.571  40.506  0.00  0.00    +0.031 C 
ATOM      2  C   UNL     1      43.493  76.724  40.481  0.00  0.00    -0.024 A 
ATOM      3  C   UNL     1      43.296  77.672  39.502  0.00  0.00    -0.008 A 
ATOM      4  C   UNL     1      44.155  78.754  39.460  0.00  0.00    +0.083 A 
ATOM      5  C   UNL     1      45.164  78.861  40.373  0.00  0.00    +0.052 A 
ATOM      6  C   UNL     1      45.356  77.919  41.343  0.00  0.00    +0.004 A 
ATOM      7  C   UNL     1      44.515  76.825  41.412  0.00  0.00    -0.004 A 
ATOM      8  C   UNL     1      46.022  79.968  40.309  0.00  0.00    +0.155 A 
ATOM      9  C   UNL     1      45.783  80.888  39.311  0.00  0.00    +0.131 A 
ATOM     10  C   UNL     1      46.624  81.979  39.243  0.00  0.00    +0.207 A 
ATOM     11  O   UNL     1      46.450  82.852  38.349  0.00  0.00    -0.286 OA
ATOM     12  C   UNL     1      47.632  82.062  40.176  0.00  0.00    +0.086 A 
ATOM     13  C   UNL     1      47.800  81.099  41.139  0.00  0.00    +0.224 A 
ATOM     14  O   UNL     1      46.997  80.092  41.175  0.00  0.00    -0.447 OA
ATOM     15  C   UNL     1      44.748  80.735  38.410  0.00  0.00    +0.285 A 
ATOM     16  O   UNL     1      44.607  81.619  37.539  0.00  0.00    -0.265 OA
ATOM     17  N   UNL     1      43.946  79.668  38.496  0.00  0.00    -0.208 NA
ATOM     18  C   UNL     1      42.193  77.567  38.493  0.00  0.00    +0.032 C 
ENDROOT
BRANCH  13  19
ATOM     19  C   UNL     1      48.886  81.198  42.135  0.00  0.00    +0.376 C 
ATOM     20  O   UNL     1      50.031  80.850  41.832  0.00  0.00    -0.241 OA
BRANCH  19  21
ATOM     21  O   UNL     1      48.650  81.676  43.414  0.00  0.00    -0.443 OA
BRANCH  21  22
ATOM     22  C   UNL     1      49.762  82.054  44.197  0.00  0.00    +0.209 C 
BRANCH  22  23
ATOM     23  C   UNL     1      50.667  83.021  43.516  0.00  0.00    +0.047 C 
BRANCH  23  24
ATOM     24  C   UNL     1      49.832  84.237  43.142  0.00  0.00    +0.004 C 
ATOM     25  C   UNL     1      48.867  84.456  44.310  0.00  0.00    +0.000 C 
ATOM     26  C   UNL     1      50.743  85.454  43.109  0.00  0.00    +0.000 C 
ENDBRANCH  23  24
ENDBRANCH  22  23
ENDBRANCH  21  22
ENDBRANCH  19  21
ENDBRANCH  13  19
TORSDOF 5
