REMARK  Name = Repotrectinib
REMARK  0 active torsions:
REMARK  status: ('A' for Active; 'I' for Inactive)
REMARK                            x       y       z     vdW  Elec       q    Type
REMARK                         _______ _______ _______ _____ _____    ______ ____
ROOT
ATOM      1  C   UNL     1      47.811  78.747  44.263  0.00  0.00    +0.049 C 
ATOM      2  C   UNL     1      47.797  79.674  43.041  0.00  0.00    +0.188 C 
ATOM      3  C   UNL     1      46.459  79.502  42.302  0.00  0.00    +0.159 C 
ATOM      4  N   UNL     1      46.641  78.759  41.070  0.00  0.00    -0.198 NA
ATOM      5  C   UNL     1      45.809  78.767  39.949  0.00  0.00    +0.269 C 
ATOM      6  O   UNL     1      45.486  77.654  39.436  0.00  0.00    -0.268 OA
ATOM      7  C   UNL     1      45.259  79.952  39.290  0.00  0.00    +0.112 A 
ATOM      8  C   UNL     1      45.862  81.170  39.288  0.00  0.00    +0.171 A 
ATOM      9  N   UNL     1      47.008  81.485  39.859  0.00  0.00    -0.210 NA
ATOM     10  C   UNL     1      47.560  82.713  39.826  0.00  0.00    +0.151 A 
ATOM     11  C   UNL     1      46.830  83.668  39.130  0.00  0.00    +0.057 A 
ATOM     12  C   UNL     1      45.626  83.357  38.523  0.00  0.00    +0.105 A 
ATOM     13  N   UNL     1      45.144  82.083  38.610  0.00  0.00    -0.210 N 
ATOM     14  N   UNL     1      44.080  81.450  38.178  0.00  0.00    -0.162 NA
ATOM     15  C   UNL     1      44.090  80.147  38.560  0.00  0.00    +0.128 A 
ATOM     16  N   UNL     1      48.794  83.020  40.454  0.00  0.00    -0.217 NA
ATOM     17  C   UNL     1      49.569  82.058  41.218  0.00  0.00    +0.119 C 
ATOM     18  C   UNL     1      49.667  82.415  42.644  0.00  0.00    +0.034 A 
ATOM     19  C   UNL     1      48.852  81.897  43.651  0.00  0.00    +0.136 A 
ATOM     20  O   UNL     1      47.872  80.983  43.468  0.00  0.00    -0.478 OA
ATOM     21  C   UNL     1      49.102  82.387  44.922  0.00  0.00    +0.039 A 
ATOM     22  C   UNL     1      50.083  83.325  45.217  0.00  0.00    +0.033 A 
ATOM     23  C   UNL     1      50.868  83.819  44.230  0.00  0.00    +0.140 A 
ATOM     24  C   UNL     1      50.654  83.363  42.963  0.00  0.00    +0.030 A 
ATOM     25  F   UNL     1      51.854  84.747  44.455  0.00  0.00    -0.204 F 
ATOM     26  C   UNL     1      50.978  82.113  40.600  0.00  0.00    +0.028 C 
ENDROOT
TORSDOF 0
