REMARK  Name = Rescinnamine
REMARK  11 active torsions:
REMARK  status: ('A' for Active; 'I' for Inactive)
REMARK    1  A    between atoms: O_2  and  C_3
REMARK    2  A    between atoms: C_4  and  O_30
REMARK    3  A    between atoms: C_16  and  C_17
REMARK    4  A    between atoms: C_17  and  O_19
REMARK    5  A    between atoms: C_26  and  O_28
REMARK    6  A    between atoms: O_30  and  C_31
REMARK    7  A    between atoms: C_31  and  C_33
REMARK    8  A    between atoms: C_34  and  C_35
REMARK    9  A    between atoms: C_37  and  O_45
REMARK   10  A    between atoms: C_38  and  O_43
REMARK   11  A    between atoms: C_39  and  O_41
REMARK                            x       y       z     vdW  Elec       q    Type
REMARK                         _______ _______ _______ _____ _____    ______ ____
ROOT
ATOM      1  C   UNL     1      43.995  78.038  40.362  0.00  0.00    +0.166 C 
ATOM      2  C   UNL     1      43.324  79.353  40.129  0.00  0.00    +0.197 C 
ATOM      3  C   UNL     1      42.529  79.380  38.841  0.00  0.00    +0.048 C 
ATOM      4  C   UNL     1      41.488  78.294  38.804  0.00  0.00    +0.020 C 
ATOM      5  C   UNL     1      41.336  77.732  37.424  0.00  0.00    +0.072 C 
ATOM      6  N   UNL     1      40.426  76.626  37.331  0.00  0.00    -0.269 NA
ATOM      7  C   UNL     1      40.956  75.557  36.555  0.00  0.00    +0.077 C 
ATOM      8  C   UNL     1      40.016  74.422  36.340  0.00  0.00    +0.045 C 
ATOM      9  C   UNL     1      38.988  74.306  37.395  0.00  0.00    -0.004 A 
ATOM     10  C   UNL     1      38.886  75.175  38.450  0.00  0.00    +0.069 A 
ATOM     11  C   UNL     1      39.829  76.293  38.572  0.00  0.00    +0.098 C 
ATOM     12  C   UNL     1      40.955  75.960  39.525  0.00  0.00    +0.023 C 
ATOM     13  C   UNL     1      41.597  77.306  39.897  0.00  0.00    +0.016 C 
ATOM     14  C   UNL     1      42.927  77.002  40.477  0.00  0.00    +0.130 C 
ATOM     15  N   UNL     1      37.855  74.832  39.264  0.00  0.00    -0.249 NA
ATOM     16  C   UNL     1      37.285  73.750  38.751  0.00  0.00    +0.084 A 
ATOM     17  C   UNL     1      37.951  73.391  37.598  0.00  0.00    +0.015 A 
ATOM     18  C   UNL     1      37.552  72.281  36.859  0.00  0.00    +0.004 A 
ATOM     19  C   UNL     1      36.478  71.527  37.280  0.00  0.00    +0.037 A 
ATOM     20  C   UNL     1      35.797  71.885  38.448  0.00  0.00    +0.140 A 
ATOM     21  C   UNL     1      36.197  72.986  39.176  0.00  0.00    +0.056 A 
ENDROOT
BRANCH   1  23
ATOM     22  C   UNL     1      46.196  77.402  40.036  0.00  0.00    +0.174 C 
ATOM     23  O   UNL     1      44.985  77.728  39.455  0.00  0.00    -0.349 OA
ENDBRANCH   1  23
BRANCH  14  24
ATOM     24  C   UNL     1      43.450  75.664  39.995  0.00  0.00    +0.319 C 
ATOM     25  O   UNL     1      44.307  75.653  39.088  0.00  0.00    -0.250 OA
BRANCH  24  26
ATOM     26  O   UNL     1      42.968  74.496  40.564  0.00  0.00    -0.444 OA
ATOM     27  C   UNL     1      43.815  73.801  41.453  0.00  0.00    +0.256 C 
ENDBRANCH  24  26
ENDBRANCH  14  24
BRANCH  20  28
ATOM     28  O   UNL     1      34.718  71.134  38.877  0.00  0.00    -0.471 OA
ATOM     29  C   UNL     1      34.390  71.055  40.237  0.00  0.00    +0.252 C 
ENDBRANCH  20  28
BRANCH   2  30
ATOM     30  O   UNL     1      44.107  80.480  40.342  0.00  0.00    -0.447 OA
BRANCH  30  31
ATOM     31  C   UNL     1      45.272  80.836  39.761  0.00  0.00    +0.341 C 
ATOM     32  O   UNL     1      45.149  80.779  38.452  0.00  0.00    -0.245 OA
BRANCH  31  33
ATOM     33  C   UNL     1      46.502  81.231  40.341  0.00  0.00    +0.082 C 
ATOM     34  C   UNL     1      46.987  81.634  41.439  0.00  0.00    +0.007 C 
BRANCH  34  35
ATOM     35  C   UNL     1      48.274  81.969  41.969  0.00  0.00    +0.006 A 
ATOM     36  C   UNL     1      49.194  80.956  42.303  0.00  0.00    +0.040 A 
ATOM     37  C   UNL     1      50.435  81.222  42.832  0.00  0.00    +0.175 A 
ATOM     38  C   UNL     1      50.851  82.504  43.068  0.00  0.00    +0.206 A 
ATOM     39  C   UNL     1      49.989  83.519  42.758  0.00  0.00    +0.175 A 
ATOM     40  C   UNL     1      48.721  83.237  42.217  0.00  0.00    +0.040 A 
BRANCH  39  41
ATOM     41  O   UNL     1      50.407  84.820  42.995  0.00  0.00    -0.468 OA
ATOM     42  C   UNL     1      49.629  85.961  42.781  0.00  0.00    +0.253 C 
ENDBRANCH  39  41
BRANCH  38  43
ATOM     43  O   UNL     1      52.107  82.775  43.603  0.00  0.00    -0.465 OA
ATOM     44  C   UNL     1      53.004  83.555  42.846  0.00  0.00    +0.253 C 
ENDBRANCH  38  43
BRANCH  37  45
ATOM     45  O   UNL     1      51.326  80.189  43.153  0.00  0.00    -0.468 OA
ATOM     46  C   UNL     1      50.869  78.858  43.030  0.00  0.00    +0.253 C 
ENDBRANCH  37  45
ENDBRANCH  34  35
ENDBRANCH  31  33
ENDBRANCH  30  31
ENDBRANCH   2  30
TORSDOF 11
