REMARK  Name = Reserpine
REMARK  10 active torsions:
REMARK  status: ('A' for Active; 'I' for Inactive)
REMARK    1  A    between atoms: O_2  and  C_3
REMARK    2  A    between atoms: C_4  and  O_30
REMARK    3  A    between atoms: C_16  and  C_17
REMARK    4  A    between atoms: C_17  and  O_19
REMARK    5  A    between atoms: C_26  and  O_28
REMARK    6  A    between atoms: O_30  and  C_31
REMARK    7  A    between atoms: C_31  and  C_33
REMARK    8  A    between atoms: C_35  and  O_43
REMARK    9  A    between atoms: C_36  and  O_41
REMARK   10  A    between atoms: C_37  and  O_39
REMARK                            x       y       z     vdW  Elec       q    Type
REMARK                         _______ _______ _______ _____ _____    ______ ____
ROOT
ATOM      1  C   UNL     1      44.844  78.264  40.688  0.00  0.00    +0.166 C 
ATOM      2  C   UNL     1      44.628  79.657  40.094  0.00  0.00    +0.197 C 
ATOM      3  C   UNL     1      43.818  79.496  38.826  0.00  0.00    +0.048 C 
ATOM      4  C   UNL     1      42.544  78.745  39.052  0.00  0.00    +0.020 C 
ATOM      5  C   UNL     1      41.842  78.567  37.739  0.00  0.00    +0.072 C 
ATOM      6  N   UNL     1      40.784  77.654  37.712  0.00  0.00    -0.269 NA
ATOM      7  C   UNL     1      40.576  77.082  36.398  0.00  0.00    +0.077 C 
ATOM      8  C   UNL     1      39.426  76.137  36.299  0.00  0.00    +0.045 C 
ATOM      9  C   UNL     1      38.688  75.930  37.577  0.00  0.00    -0.004 A 
ATOM     10  C   UNL     1      39.351  76.154  38.758  0.00  0.00    +0.069 A 
ATOM     11  C   UNL     1      40.759  76.595  38.669  0.00  0.00    +0.098 C 
ATOM     12  C   UNL     1      41.364  76.868  39.993  0.00  0.00    +0.023 C 
ATOM     13  C   UNL     1      42.762  77.418  39.748  0.00  0.00    +0.016 C 
ATOM     14  C   UNL     1      43.538  77.602  41.015  0.00  0.00    +0.130 C 
ATOM     15  N   UNL     1      38.487  75.902  39.746  0.00  0.00    -0.249 NA
ATOM     16  C   UNL     1      37.292  75.524  39.232  0.00  0.00    +0.084 A 
ATOM     17  C   UNL     1      37.394  75.534  37.859  0.00  0.00    +0.015 A 
ATOM     18  C   UNL     1      36.354  75.199  37.026  0.00  0.00    +0.004 A 
ATOM     19  C   UNL     1      35.162  74.840  37.611  0.00  0.00    +0.037 A 
ATOM     20  C   UNL     1      35.007  74.813  38.981  0.00  0.00    +0.140 A 
ATOM     21  C   UNL     1      36.081  75.158  39.776  0.00  0.00    +0.056 A 
ENDROOT
BRANCH   1  23
ATOM     22  C   UNL     1      45.336  79.012  42.833  0.00  0.00    +0.174 C 
ATOM     23  O   UNL     1      45.742  78.308  41.728  0.00  0.00    -0.349 OA
ENDBRANCH   1  23
BRANCH  14  24
ATOM     24  C   UNL     1      43.828  76.250  41.554  0.00  0.00    +0.319 C 
ATOM     25  O   UNL     1      44.874  75.625  41.230  0.00  0.00    -0.250 OA
BRANCH  24  26
ATOM     26  O   UNL     1      42.962  75.644  42.423  0.00  0.00    -0.444 OA
ATOM     27  C   UNL     1      43.314  74.832  43.510  0.00  0.00    +0.256 C 
ENDBRANCH  24  26
ENDBRANCH  14  24
BRANCH  20  28
ATOM     28  O   UNL     1      33.784  74.443  39.539  0.00  0.00    -0.471 OA
ATOM     29  C   UNL     1      33.672  74.313  40.940  0.00  0.00    +0.252 C 
ENDBRANCH  20  28
BRANCH   2  30
ATOM     30  O   UNL     1      45.916  80.120  39.700  0.00  0.00    -0.447 OA
BRANCH  30  31
ATOM     31  C   UNL     1      46.369  81.385  39.924  0.00  0.00    +0.341 C 
ATOM     32  O   UNL     1      45.702  82.379  39.551  0.00  0.00    -0.245 OA
BRANCH  31  33
ATOM     33  C   UNL     1      47.628  81.604  40.597  0.00  0.00    +0.082 A 
ATOM     34  C   UNL     1      47.872  82.709  41.384  0.00  0.00    +0.047 A 
ATOM     35  C   UNL     1      49.081  82.908  42.021  0.00  0.00    +0.176 A 
ATOM     36  C   UNL     1      50.090  81.978  41.875  0.00  0.00    +0.206 A 
ATOM     37  C   UNL     1      49.840  80.884  41.093  0.00  0.00    +0.176 A 
ATOM     38  C   UNL     1      48.635  80.680  40.453  0.00  0.00    +0.047 A 
BRANCH  37  39
ATOM     39  O   UNL     1      50.880  79.947  40.955  0.00  0.00    -0.468 OA
ATOM     40  C   UNL     1      50.651  78.775  40.195  0.00  0.00    +0.253 C 
ENDBRANCH  37  39
BRANCH  36  41
ATOM     41  O   UNL     1      51.319  82.144  42.501  0.00  0.00    -0.465 OA
ATOM     42  C   UNL     1      52.342  82.942  41.953  0.00  0.00    +0.253 C 
ENDBRANCH  36  41
BRANCH  35  43
ATOM     43  O   UNL     1      49.303  84.023  42.806  0.00  0.00    -0.468 OA
ATOM     44  C   UNL     1      48.261  84.977  42.953  0.00  0.00    +0.253 C 
ENDBRANCH  35  43
ENDBRANCH  31  33
ENDBRANCH  30  31
ENDBRANCH   2  30
TORSDOF 10
