REMARK  Name = Retapamulin
REMARK  6 active torsions:
REMARK  status: ('A' for Active; 'I' for Inactive)
REMARK    1  A    between atoms: C_12  and  O_22
REMARK    2  A    between atoms: C_14  and  C_20
REMARK    3  A    between atoms: O_22  and  C_23
REMARK    4  A    between atoms: C_23  and  C_25
REMARK    5  A    between atoms: C_25  and  S_26
REMARK    6  A    between atoms: S_26  and  C_27
REMARK                            x       y       z     vdW  Elec       q    Type
REMARK                         _______ _______ _______ _____ _____    ______ ____
ROOT
ATOM      1  C   UNL     1      48.404  79.264  39.503  0.00  0.00    +0.000 C 
ATOM      2  C   UNL     1      48.672  80.164  40.691  0.00  0.00    +0.004 C 
ATOM      3  C   UNL     1      49.938  79.743  41.344  0.00  0.00    +0.000 C 
ATOM      4  C   UNL     1      50.471  80.684  42.372  0.00  0.00    +0.001 C 
ATOM      5  C   UNL     1      50.498  82.114  41.966  0.00  0.00    +0.009 C 
ATOM      6  C   UNL     1      51.991  82.385  41.641  0.00  0.00    +0.008 C 
ATOM      7  C   UNL     1      52.226  81.846  40.284  0.00  0.00    +0.065 C 
ATOM      8  C   UNL     1      50.907  82.135  39.626  0.00  0.00    +0.150 C 
ATOM      9  O   UNL     1      50.821  82.133  38.423  0.00  0.00    -0.296 OA
ATOM     10  C   UNL     1      49.860  82.393  40.639  0.00  0.00    +0.061 C 
ATOM     11  C   UNL     1      48.627  81.639  40.346  0.00  0.00    +0.043 C 
ATOM     12  C   UNL     1      47.343  82.174  40.936  0.00  0.00    +0.169 C 
ATOM     13  C   UNL     1      47.209  82.115  42.407  0.00  0.00    +0.050 C 
ATOM     14  C   UNL     1      47.691  83.366  43.072  0.00  0.00    +0.050 C 
ATOM     15  C   UNL     1      49.019  83.252  43.741  0.00  0.00    +0.156 C 
ATOM     16  C   UNL     1      50.245  83.123  43.016  0.00  0.00    +0.031 C 
ATOM     17  C   UNL     1      51.355  82.867  44.068  0.00  0.00    +0.003 C 
ATOM     18  O   UNL     1      48.844  82.259  44.740  0.00  0.00    -0.223 OA
ATOM     19  C   UNL     1      46.728  83.518  44.305  0.00  0.00    +0.007 C 
ATOM     20  C   UNL     1      48.392  81.716  38.844  0.00  0.00    +0.004 C 
ENDROOT
BRANCH  14  21
ATOM     21  C   UNL     1      47.432  84.618  42.347  0.00  0.00    -0.024 C 
ATOM     22  C   UNL     1      47.602  85.827  42.841  0.00  0.00    -0.005 C 
ENDBRANCH  14  21
BRANCH  12  23
ATOM     23  O   UNL     1      46.349  81.266  40.404  0.00  0.00    -0.452 OA
BRANCH  23  24
ATOM     24  C   UNL     1      45.653  81.507  39.228  0.00  0.00    +0.328 C 
ATOM     25  O   UNL     1      45.772  82.656  38.749  0.00  0.00    -0.249 OA
BRANCH  24  26
ATOM     26  C   UNL     1      44.871  80.389  38.692  0.00  0.00    +0.167 C 
BRANCH  26  27
ATOM     27  S   UNL     1      43.571  79.767  39.716  0.00  0.00    -0.129 S 
BRANCH  27  28
ATOM     28  C   UNL     1      43.052  78.088  39.343  0.00  0.00    +0.051 C 
ATOM     29  C   UNL     1      42.229  77.478  40.383  0.00  0.00    +0.027 C 
ATOM     30  C   UNL     1      40.781  77.195  40.033  0.00  0.00    +0.058 C 
ATOM     31  C   UNL     1      40.716  75.798  39.465  0.00  0.00    +0.017 C 
ATOM     32  C   UNL     1      41.095  75.982  38.023  0.00  0.00    +0.017 C 
ATOM     33  C   UNL     1      41.139  77.491  37.850  0.00  0.00    +0.058 C 
ATOM     34  C   UNL     1      42.540  77.999  37.914  0.00  0.00    +0.027 C 
ATOM     35  N   UNL     1      40.377  78.035  38.943  0.00  0.00    -0.274 NA
ATOM     36  C   UNL     1      38.946  77.959  38.695  0.00  0.00    +0.090 C 
ENDBRANCH  27  28
ENDBRANCH  26  27
ENDBRANCH  24  26
ENDBRANCH  23  24
ENDBRANCH  12  23
TORSDOF 6
