REMARK  Name = Retigabine
REMARK  6 active torsions:
REMARK  status: ('A' for Active; 'I' for Inactive)
REMARK    1  A    between atoms: C_2  and  O_3
REMARK    2  A    between atoms: O_3  and  C_4
REMARK    3  A    between atoms: N_6  and  C_7
REMARK    4  A    between atoms: C_10  and  N_13
REMARK    5  A    between atoms: N_13  and  C_14
REMARK    6  A    between atoms: C_14  and  C_15
REMARK                            x       y       z     vdW  Elec       q    Type
REMARK                         _______ _______ _______ _____ _____    ______ ____
ROOT
ATOM      1  C   UNL     1      44.996  80.065  39.484  0.00  0.00    +0.093 A 
ATOM      2  C   UNL     1      45.853  81.123  39.295  0.00  0.00    +0.106 A 
ATOM      3  C   UNL     1      46.937  81.317  40.168  0.00  0.00    +0.035 A 
ATOM      4  C   UNL     1      47.157  80.463  41.213  0.00  0.00    +0.067 A 
ATOM      5  C   UNL     1      46.309  79.412  41.404  0.00  0.00    +0.018 A 
ATOM      6  C   UNL     1      45.249  79.228  40.544  0.00  0.00    +0.019 A 
ATOM      7  N   UNL     1      45.598  81.990  38.204  0.00  0.00    -0.127 NA
ENDROOT
BRANCH   1  10
ATOM      8  C   UNL     1      43.036  78.754  38.643  0.00  0.00    +0.425 C 
ATOM      9  O   UNL     1      43.129  77.942  39.579  0.00  0.00    -0.224 OA
ATOM     10  N   UNL     1      43.914  79.860  38.623  0.00  0.00    -0.141 NA
BRANCH   8  11
ATOM     11  O   UNL     1      42.084  78.541  37.665  0.00  0.00    -0.433 OA
BRANCH  11  13
ATOM     12  C   UNL     1      40.313  77.563  36.439  0.00  0.00    +0.051 C 
ATOM     13  C   UNL     1      41.261  77.380  37.631  0.00  0.00    +0.210 C 
ENDBRANCH  11  13
ENDBRANCH   8  11
ENDBRANCH   1  10
BRANCH   4  14
ATOM     14  N   UNL     1      48.243  80.669  42.077  0.00  0.00    -0.233 NA
BRANCH  14  15
ATOM     15  C   UNL     1      49.307  81.546  41.681  0.00  0.00    +0.139 C 
BRANCH  15  16
ATOM     16  C   UNL     1      49.341  82.801  42.463  0.00  0.00    -0.001 A 
ATOM     17  C   UNL     1      48.232  83.481  42.886  0.00  0.00    -0.000 A 
ATOM     18  C   UNL     1      48.315  84.650  43.613  0.00  0.00    +0.029 A 
ATOM     19  C   UNL     1      49.542  85.160  43.931  0.00  0.00    +0.140 A 
ATOM     20  C   UNL     1      50.689  84.487  43.512  0.00  0.00    +0.029 A 
ATOM     21  C   UNL     1      50.573  83.322  42.787  0.00  0.00    -0.000 A 
ATOM     22  F   UNL     1      49.729  86.298  44.639  0.00  0.00    -0.204 F 
ENDBRANCH  15  16
ENDBRANCH  14  15
ENDBRANCH   4  14
TORSDOF 6
