REMARK  Name = Revefenacin
REMARK  11 active torsions:
REMARK  status: ('A' for Active; 'I' for Inactive)
REMARK    1  A    between atoms: N_2  and  C_3
REMARK    2  A    between atoms: C_3  and  C_4
REMARK    3  A    between atoms: C_4  and  N_5
REMARK    4  A    between atoms: C_8  and  O_11
REMARK    5  A    between atoms: O_11  and  C_12
REMARK    6  A    between atoms: N_14  and  C_15
REMARK    7  A    between atoms: C_20  and  C_21
REMARK    8  A    between atoms: C_27  and  C_29
REMARK    9  A    between atoms: C_32  and  C_35
REMARK   10  A    between atoms: C_35  and  N_36
REMARK   11  A    between atoms: C_39  and  C_42
REMARK                            x       y       z     vdW  Elec       q    Type
REMARK                         _______ _______ _______ _____ _____    ______ ____
ROOT
ATOM      1  C   UNL     1      47.781  83.010  41.487  0.00  0.00    +0.094 C 
ENDROOT
BRANCH   1   2
ATOM      2  N   UNL     1      48.583  82.604  40.393  0.00  0.00    -0.271 NA
ATOM      3  C   UNL     1      47.920  83.157  39.196  0.00  0.00    +0.076 C 
ATOM      4  C   UNL     1      47.294  82.132  38.325  0.00  0.00    +0.061 C 
ATOM      5  C   UNL     1      46.623  80.996  39.016  0.00  0.00    +0.173 C 
ATOM      6  C   UNL     1      47.407  80.516  40.186  0.00  0.00    +0.061 C 
ATOM      7  C   UNL     1      48.756  81.184  40.201  0.00  0.00    +0.076 C 
BRANCH   5   8
ATOM      8  O   UNL     1      45.300  81.362  39.352  0.00  0.00    -0.437 OA
BRANCH   8   9
ATOM      9  C   UNL     1      44.457  80.461  39.980  0.00  0.00    +0.425 C 
ATOM     10  O   UNL     1      43.651  80.937  40.825  0.00  0.00    -0.224 OA
ATOM     11  N   UNL     1      44.490  79.062  39.688  0.00  0.00    -0.142 NA
BRANCH  11  12
ATOM     12  C   UNL     1      44.100  78.087  40.631  0.00  0.00    +0.077 A 
ATOM     13  C   UNL     1      44.804  77.974  41.819  0.00  0.00    +0.017 A 
ATOM     14  C   UNL     1      44.460  77.075  42.803  0.00  0.00    +0.001 A 
ATOM     15  C   UNL     1      43.364  76.276  42.553  0.00  0.00    +0.000 A 
ATOM     16  C   UNL     1      42.649  76.356  41.402  0.00  0.00    +0.001 A 
ATOM     17  C   UNL     1      43.025  77.285  40.414  0.00  0.00    +0.015 A 
BRANCH  17  18
ATOM     18  C   UNL     1      42.191  77.312  39.190  0.00  0.00    +0.001 A 
ATOM     19  C   UNL     1      42.050  76.120  38.519  0.00  0.00    +0.000 A 
ATOM     20  C   UNL     1      41.308  76.086  37.366  0.00  0.00    +0.000 A 
ATOM     21  C   UNL     1      40.694  77.222  36.857  0.00  0.00    +0.000 A 
ATOM     22  C   UNL     1      40.857  78.390  37.553  0.00  0.00    +0.000 A 
ATOM     23  C   UNL     1      41.611  78.442  38.730  0.00  0.00    +0.000 A 
ENDBRANCH  17  18
ENDBRANCH  11  12
ENDBRANCH   8   9
ENDBRANCH   5   8
ENDBRANCH   1   2
BRANCH   1  24
ATOM     24  C   UNL     1      48.233  83.990  42.473  0.00  0.00    +0.111 C 
BRANCH  24  26
ATOM     25  C   UNL     1      48.681  83.830  44.931  0.00  0.00    +0.115 C 
ATOM     26  N   UNL     1      49.108  83.674  43.521  0.00  0.00    -0.273 N 
ATOM     27  C   UNL     1      50.401  83.159  43.334  0.00  0.00    +0.249 C 
ATOM     28  O   UNL     1      50.893  82.991  42.164  0.00  0.00    -0.270 OA
BRANCH  27  29
ATOM     29  C   UNL     1      51.219  82.792  44.478  0.00  0.00    +0.054 A 
ATOM     30  C   UNL     1      52.587  82.834  44.455  0.00  0.00    +0.004 A 
ATOM     31  C   UNL     1      53.369  82.446  45.546  0.00  0.00    -0.003 A 
ATOM     32  C   UNL     1      52.751  82.004  46.688  0.00  0.00    -0.006 A 
ATOM     33  C   UNL     1      51.384  81.953  46.735  0.00  0.00    -0.003 A 
ATOM     34  C   UNL     1      50.622  82.336  45.659  0.00  0.00    +0.004 A 
BRANCH  32  35
ATOM     35  C   UNL     1      53.623  81.573  47.835  0.00  0.00    +0.099 C 
BRANCH  35  36
ATOM     36  N   UNL     1      53.000  80.515  48.581  0.00  0.00    -0.269 NA
ATOM     37  C   UNL     1      53.752  80.037  49.681  0.00  0.00    +0.073 C 
ATOM     38  C   UNL     1      52.947  79.127  50.598  0.00  0.00    +0.027 C 
ATOM     39  C   UNL     1      52.324  78.005  49.779  0.00  0.00    +0.083 C 
ATOM     40  C   UNL     1      52.795  78.130  48.330  0.00  0.00    +0.027 C 
ATOM     41  C   UNL     1      52.394  79.485  47.823  0.00  0.00    +0.073 C 
BRANCH  39  42
ATOM     42  C   UNL     1      52.585  76.666  50.346  0.00  0.00    +0.260 C 
ATOM     43  O   UNL     1      52.238  75.596  49.733  0.00  0.00    -0.272 OA
ATOM     44  N   UNL     1      53.227  76.462  51.593  0.00  0.00    -0.088 NA
ENDBRANCH  39  42
ENDBRANCH  35  36
ENDBRANCH  32  35
ENDBRANCH  27  29
ENDBRANCH  24  26
ENDBRANCH   1  24
TORSDOF 11
