REMARK  Name = Revolade/Promacta
REMARK  4 active torsions:
REMARK  status: ('A' for Active; 'I' for Inactive)
REMARK    1  A    between atoms: C_5  and  C_8
REMARK    2  A    between atoms: C_8  and  C_9
REMARK    3  A    between atoms: C_10  and  C_11
REMARK    4  A    between atoms: C_14  and  C_17
REMARK                            x       y       z     vdW  Elec       q    Type
REMARK                         _______ _______ _______ _____ _____    ______ ____
ROOT
ATOM      1  C   UNL     1      45.675  80.926  39.835  0.00  0.00    +0.000 A 
ATOM      2  C   UNL     1      45.664  79.711  40.476  0.00  0.00    +0.011 A 
ATOM      3  C   UNL     1      44.726  78.737  40.113  0.00  0.00    +0.054 A 
ATOM      4  C   UNL     1      43.803  78.973  39.115  0.00  0.00    -0.012 A 
ATOM      5  C   UNL     1      43.797  80.187  38.458  0.00  0.00    -0.003 A 
ATOM      6  C   UNL     1      44.720  81.116  38.831  0.00  0.00    -0.000 A 
ATOM      7 CL   UNL     1      44.768  77.209  40.972  0.00  0.00    -0.083 Cl
ENDROOT
BRANCH   4   8
ATOM      8  C   UNL     1      42.851  77.892  38.796  0.00  0.00    +0.023 C 
ATOM      9  C   UNL     1      41.902  77.577  39.905  0.00  0.00    +0.004 C 
ATOM     10  C   UNL     1      41.186  76.289  39.560  0.00  0.00    +0.000 C 
ATOM     11  C   UNL     1      40.535  76.313  38.220  0.00  0.00    +0.000 C 
ATOM     12  C   UNL     1      41.361  76.922  37.136  0.00  0.00    +0.000 C 
ATOM     13  C   UNL     1      42.007  78.230  37.563  0.00  0.00    +0.004 C 
ENDBRANCH   4   8
BRANCH   1  15
ATOM     14  C   UNL     1      47.706  81.800  40.835  0.00  0.00    -0.026 C 
ATOM     15  C   UNL     1      46.621  82.006  40.148  0.00  0.00    -0.005 C 
BRANCH  14  16
ATOM     16  C   UNL     1      48.570  82.941  41.222  0.00  0.00    +0.026 C 
BRANCH  16  21
ATOM     17  C   UNL     1      51.781  84.089  43.645  0.00  0.00    +0.000 C 
ATOM     18  C   UNL     1      50.962  85.347  43.686  0.00  0.00    +0.000 C 
ATOM     19  C   UNL     1      49.574  85.159  43.112  0.00  0.00    +0.000 C 
ATOM     20  C   UNL     1      48.932  83.886  43.518  0.00  0.00    +0.000 C 
ATOM     21  C   UNL     1      49.141  82.733  42.599  0.00  0.00    +0.004 C 
ATOM     22  C   UNL     1      50.585  82.284  42.530  0.00  0.00    +0.000 C 
ATOM     23  C   UNL     1      51.544  83.409  42.325  0.00  0.00    +0.000 C 
ENDBRANCH  16  21
ENDBRANCH  14  16
ENDBRANCH   1  15
TORSDOF 4
