REMARK  Name = Rezafungin
REMARK  18 active torsions:
REMARK  status: ('A' for Active; 'I' for Inactive)
REMARK    1  A    between atoms: C_2  and  C_3
REMARK    2  A    between atoms: C_3  and  C_4
REMARK    3  A    between atoms: C_4  and  C_5
REMARK    4  A    between atoms: C_5  and  O_6
REMARK    5  A    between atoms: O_6  and  C_7
REMARK    6  A    between atoms: C_10  and  C_13
REMARK    7  A    between atoms: C_16  and  C_19
REMARK    8  A    between atoms: C_22  and  C_25
REMARK    9  A    between atoms: N_27  and  C_28
REMARK   10  A    between atoms: C_31  and  O_81
REMARK   11  A    between atoms: C_42  and  C_76
REMARK   12  A    between atoms: C_46  and  C_65
REMARK   13  A    between atoms: C_57  and  C_61
REMARK   14  A    between atoms: C_65  and  C_66
REMARK   15  A    between atoms: C_66  and  C_67
REMARK   16  A    between atoms: O_81  and  C_82
REMARK   17  A    between atoms: C_82  and  C_83
REMARK   18  A    between atoms: C_83  and  N_84
REMARK                            x       y       z     vdW  Elec       q    Type
REMARK                         _______ _______ _______ _____ _____    ______ ____
ROOT
ATOM      1  C   UNL     1      42.446  79.215  38.219  0.00  0.00    +0.176 C 
ATOM      2  C   UNL     1      42.210  78.703  39.638  0.00  0.00    +0.068 C 
ATOM      3  C   UNL     1      42.811  77.327  39.820  0.00  0.00    +0.202 C 
ATOM      4  C   UNL     1      41.747  76.239  40.001  0.00  0.00    +0.242 C 
ATOM      5  N   UNL     1      41.468  75.992  41.369  0.00  0.00    -0.174 NA
ATOM      6  C   UNL     1      42.340  75.555  42.401  0.00  0.00    +0.264 C 
ATOM      7  O   UNL     1      42.199  76.115  43.540  0.00  0.00    -0.271 OA
ATOM      8  C   UNL     1      43.347  74.531  42.212  0.00  0.00    +0.184 C 
ATOM      9  C   UNL     1      42.529  73.195  42.053  0.00  0.00    +0.181 C 
ATOM     10  C   UNL     1      42.319  72.761  43.478  0.00  0.00    +0.052 C 
ATOM     11  C   UNL     1      43.233  73.636  44.311  0.00  0.00    +0.096 C 
ATOM     12  N   UNL     1      44.172  74.130  43.288  0.00  0.00    -0.269 N 
ATOM     13  C   UNL     1      45.582  74.097  43.410  0.00  0.00    +0.248 C 
ATOM     14  O   UNL     1      46.108  72.917  43.678  0.00  0.00    -0.273 OA
ATOM     15  C   UNL     1      46.577  75.196  43.283  0.00  0.00    +0.201 C 
ATOM     16  N   UNL     1      46.791  75.641  41.963  0.00  0.00    -0.194 NA
ATOM     17  C   UNL     1      47.791  76.294  41.243  0.00  0.00    +0.264 C 
ATOM     18  O   UNL     1      48.428  75.618  40.321  0.00  0.00    -0.271 OA
ATOM     19  C   UNL     1      48.305  77.687  41.314  0.00  0.00    +0.206 C 
ATOM     20  N   UNL     1      47.353  78.591  41.926  0.00  0.00    -0.194 NA
ATOM     21  C   UNL     1      47.465  79.951  42.190  0.00  0.00    +0.260 C 
ATOM     22  O   UNL     1      47.373  80.392  43.394  0.00  0.00    -0.272 OA
ATOM     23  C   UNL     1      47.692  81.066  41.204  0.00  0.00    +0.156 C 
ATOM     24  C   UNL     1      48.872  81.819  41.739  0.00  0.00    +0.064 C 
ATOM     25  C   UNL     1      48.371  83.185  42.026  0.00  0.00    +0.174 C 
ATOM     26  C   UNL     1      46.887  83.030  42.249  0.00  0.00    +0.127 C 
ATOM     27  N   UNL     1      46.522  81.977  41.288  0.00  0.00    -0.269 N 
ATOM     28  C   UNL     1      45.329  81.786  40.587  0.00  0.00    +0.248 C 
ATOM     29  O   UNL     1      44.237  81.695  41.270  0.00  0.00    -0.273 OA
ATOM     30  C   UNL     1      45.131  81.668  39.096  0.00  0.00    +0.201 C 
ATOM     31  N   UNL     1      44.774  80.348  38.708  0.00  0.00    -0.194 NA
ATOM     32  C   UNL     1      43.791  79.719  37.959  0.00  0.00    +0.262 C 
ATOM     33  O   UNL     1      44.127  79.504  36.703  0.00  0.00    -0.271 OA
ATOM     34  O   UNL     1      48.913  83.597  43.261  0.00  0.00    -0.221 OA
ATOM     35  C   UNL     1      40.877  72.994  43.880  0.00  0.00    +0.004 C 
ATOM     36  O   UNL     1      43.268  72.282  41.320  0.00  0.00    -0.221 OA
ATOM     37  O   UNL     1      43.580  77.341  40.970  0.00  0.00    -0.218 OA
ENDROOT
BRANCH   1  40
ATOM     38  C   UNL     1      39.963  79.766  37.980  0.00  0.00    +0.265 C 
ATOM     39  O   UNL     1      39.279  80.517  38.672  0.00  0.00    -0.268 OA
ATOM     40  N   UNL     1      41.356  80.067  37.882  0.00  0.00    -0.194 NA
BRANCH  38  44
ATOM     41  C   UNL     1      38.463  76.445  35.859  0.00  0.00    +0.000 A 
ATOM     42  C   UNL     1      39.102  77.462  35.157  0.00  0.00    +0.000 A 
ATOM     43  C   UNL     1      39.613  78.536  35.886  0.00  0.00    +0.005 A 
ATOM     44  C   UNL     1      39.499  78.606  37.248  0.00  0.00    +0.055 A 
ATOM     45  C   UNL     1      38.864  77.578  37.891  0.00  0.00    +0.005 A 
ATOM     46  C   UNL     1      38.338  76.486  37.221  0.00  0.00    +0.000 A 
BRANCH  41  50
ATOM     47  C   UNL     1      36.891  73.196  33.603  0.00  0.00    +0.000 A 
ATOM     48  C   UNL     1      37.044  73.106  34.964  0.00  0.00    +0.000 A 
ATOM     49  C   UNL     1      37.541  74.173  35.697  0.00  0.00    +0.000 A 
ATOM     50  C   UNL     1      37.900  75.360  35.095  0.00  0.00    +0.000 A 
ATOM     51  C   UNL     1      37.742  75.443  33.733  0.00  0.00    +0.000 A 
ATOM     52  C   UNL     1      37.251  74.397  32.986  0.00  0.00    +0.000 A 
BRANCH  47  56
ATOM     53  C   UNL     1      35.427  69.861  31.359  0.00  0.00    +0.139 A 
ATOM     54  C   UNL     1      35.679  69.791  32.752  0.00  0.00    +0.037 A 
ATOM     55  C   UNL     1      36.141  70.849  33.443  0.00  0.00    +0.003 A 
ATOM     56  C   UNL     1      36.397  72.077  32.821  0.00  0.00    +0.000 A 
ATOM     57  C   UNL     1      36.146  72.121  31.476  0.00  0.00    +0.003 A 
ATOM     58  C   UNL     1      35.681  71.076  30.744  0.00  0.00    +0.037 A 
BRANCH  53  59
ATOM     59  O   UNL     1      34.974  68.775  30.741  0.00  0.00    -0.475 OA
BRANCH  59  60
ATOM     60  C   UNL     1      34.626  67.503  30.834  0.00  0.00    +0.205 C 
BRANCH  60  61
ATOM     61  C   UNL     1      33.205  67.095  30.645  0.00  0.00    +0.047 C 
BRANCH  61  62
ATOM     62  C   UNL     1      32.861  66.272  29.465  0.00  0.00    +0.004 C 
BRANCH  62  64
ATOM     63  C   UNL     1      31.052  65.029  28.303  0.00  0.00    +0.000 C 
ATOM     64  C   UNL     1      31.392  65.857  29.517  0.00  0.00    +0.000 C 
ENDBRANCH  62  64
ENDBRANCH  61  62
ENDBRANCH  60  61
ENDBRANCH  59  60
ENDBRANCH  53  59
ENDBRANCH  47  56
ENDBRANCH  41  50
ENDBRANCH  38  44
ENDBRANCH   1  40
BRANCH  30  65
ATOM     65  C   UNL     1      44.313  82.819  38.612  0.00  0.00    +0.181 C 
ATOM     66  C   UNL     1      43.331  83.374  39.619  0.00  0.00    +0.038 C 
ATOM     67  O   UNL     1      45.197  83.943  38.407  0.00  0.00    -0.221 OA
ENDBRANCH  30  65
BRANCH  15  68
ATOM     68  C   UNL     1      46.358  76.148  44.399  0.00  0.00    +0.181 C 
ATOM     69  C   UNL     1      45.717  77.443  44.123  0.00  0.00    +0.038 C 
ATOM     70  O   UNL     1      47.514  76.399  45.139  0.00  0.00    -0.221 OA
ENDBRANCH  15  68
BRANCH  19  71
ATOM     71  C   UNL     1      49.699  77.854  41.778  0.00  0.00    +0.215 C 
ATOM     72  O   UNL     1      50.669  77.124  41.142  0.00  0.00    -0.218 OA
BRANCH  71  73
ATOM     73  C   UNL     1      50.099  79.311  41.720  0.00  0.00    +0.207 C 
ATOM     74  O   UNL     1      49.074  80.168  42.125  0.00  0.00    -0.215 OA
BRANCH  73  75
ATOM     75  C   UNL     1      51.200  79.525  42.728  0.00  0.00    +0.011 A 
ATOM     76  C   UNL     1      51.770  80.769  42.906  0.00  0.00    +0.002 A 
ATOM     77  C   UNL     1      52.774  80.949  43.834  0.00  0.00    +0.042 A 
ATOM     78  C   UNL     1      53.204  79.879  44.581  0.00  0.00    +0.196 A 
ATOM     79  C   UNL     1      52.622  78.640  44.390  0.00  0.00    +0.042 A 
ATOM     80  C   UNL     1      51.614  78.436  43.466  0.00  0.00    +0.002 A 
ATOM     81  O   UNL     1      54.213  80.075  45.510  0.00  0.00    -0.287 OA
ENDBRANCH  73  75
ENDBRANCH  71  73
ENDBRANCH  19  71
BRANCH   4  82
ATOM     82  O   UNL     1      42.128  75.175  39.229  0.00  0.00    -0.337 OA
BRANCH  82  83
ATOM     83  C   UNL     1      41.369  74.055  39.318  0.00  0.00    +0.122 C 
BRANCH  83  84
ATOM     84  C   UNL     1      39.905  74.187  39.495  0.00  0.00    -0.041 C 
BRANCH  84  85
ATOM     85  N   UNL     1      39.167  72.979  39.699  0.00  0.00    +0.387 N 
ATOM     86  C   UNL     1      38.529  72.959  40.981  0.00  0.00    -0.096 C 
ATOM     87  C   UNL     1      38.051  72.974  38.712  0.00  0.00    -0.096 C 
ATOM     88  C   UNL     1      39.933  71.770  39.517  0.00  0.00    -0.096 C 
ENDBRANCH  84  85
ENDBRANCH  83  84
ENDBRANCH  82  83
ENDBRANCH   4  82
TORSDOF 18
