REMARK  Name = Ribavirin
REMARK  3 active torsions:
REMARK  status: ('A' for Active; 'I' for Inactive)
REMARK    1  A    between atoms: C_3  and  C_15
REMARK    2  A    between atoms: N_5  and  C1*_6
REMARK    3  A    between atoms: C4*_9  and  C5*_11
REMARK                            x       y       z     vdW  Elec       q    Type
REMARK                         _______ _______ _______ _____ _____    ______ ____
ROOT
ATOM      1  C1* UNL     1      44.222  77.073  40.992  0.00  0.00    +0.256 C 
ATOM      2  C2* UNL     1      45.362  76.154  40.585  0.00  0.00    +0.235 C 
ATOM      3  C3* UNL     1      45.671  75.525  41.952  0.00  0.00    +0.216 C 
ATOM      4  C4* UNL     1      45.501  76.778  42.803  0.00  0.00    +0.183 C 
ATOM      5  O4* UNL     1      44.313  77.282  42.337  0.00  0.00    -0.330 OA
ATOM      6  O3* UNL     1      44.678  74.596  42.198  0.00  0.00    -0.218 OA
ATOM      7  O2* UNL     1      44.973  75.204  39.670  0.00  0.00    -0.215 OA
ENDROOT
BRANCH   1  12
ATOM      8  C   UNL     1      43.396  78.616  39.242  0.00  0.00    +0.199 A 
ATOM      9  N   UNL     1      43.770  79.832  38.783  0.00  0.00    -0.199 NA
ATOM     10  C   UNL     1      44.843  80.260  39.466  0.00  0.00    +0.240 A 
ATOM     11  N   UNL     1      45.116  79.273  40.356  0.00  0.00    -0.141 NA
ATOM     12  N   UNL     1      44.238  78.287  40.213  0.00  0.00    -0.202 N 
BRANCH  10  13
ATOM     13  C   UNL     1      45.576  81.509  39.306  0.00  0.00    +0.322 C 
ATOM     14  O   UNL     1      45.199  82.344  38.459  0.00  0.00    -0.263 OA
ATOM     15  N   UNL     1      46.702  81.771  40.103  0.00  0.00    -0.081 NA
ENDBRANCH  10  13
ENDBRANCH   1  12
BRANCH   4  16
ATOM     16  C5* UNL     1      45.454  76.428  44.269  0.00  0.00    +0.214 C 
ATOM     17  O5* UNL     1      46.099  77.459  44.977  0.00  0.00    -0.218 OA
ENDBRANCH   4  16
TORSDOF 3
