REMARK  Name = Riboflavin
REMARK  5 active torsions:
REMARK  status: ('A' for Active; 'I' for Inactive)
REMARK    1  A    between atoms: N_9  and  C_19
REMARK    2  A    between atoms: C_19  and  C_20
REMARK    3  A    between atoms: C_20  and  C_21
REMARK    4  A    between atoms: C_21  and  C_22
REMARK    5  A    between atoms: C_22  and  C_23
REMARK                            x       y       z     vdW  Elec       q    Type
REMARK                         _______ _______ _______ _____ _____    ______ ____
ROOT
ATOM      1  C   UNL     1      50.338  83.858  43.093  0.00  0.00    +0.031 C 
ATOM      2  C   UNL     1      49.346  82.796  42.769  0.00  0.00    -0.024 A 
ATOM      3  C   UNL     1      48.624  82.868  41.599  0.00  0.00    +0.016 A 
ATOM      4  C   UNL     1      47.679  81.914  41.229  0.00  0.00    +0.097 A 
ATOM      5  C   UNL     1      47.441  80.830  42.070  0.00  0.00    +0.079 A 
ATOM      6  C   UNL     1      48.164  80.757  43.242  0.00  0.00    +0.014 A 
ATOM      7  C   UNL     1      49.110  81.727  43.597  0.00  0.00    -0.024 A 
ATOM      8  C   UNL     1      49.859  81.609  44.861  0.00  0.00    +0.031 C 
ATOM      9  N   UNL     1      46.528  79.865  41.756  0.00  0.00    -0.307 N 
ATOM     10  C   UNL     1      45.856  79.990  40.602  0.00  0.00    +0.171 A 
ATOM     11  N   UNL     1      44.924  79.115  40.195  0.00  0.00    -0.172 NA
ATOM     12  C   UNL     1      44.241  79.248  39.044  0.00  0.00    +0.373 A 
ATOM     13  O   UNL     1      43.392  78.370  38.763  0.00  0.00    -0.242 OA
ATOM     14  N   UNL     1      44.454  80.296  38.202  0.00  0.00    -0.150 NA
ATOM     15  C   UNL     1      45.364  81.229  38.515  0.00  0.00    +0.304 A 
ATOM     16  O   UNL     1      45.541  82.182  37.725  0.00  0.00    -0.263 OA
ATOM     17  C   UNL     1      46.080  81.123  39.686  0.00  0.00    +0.173 A 
ATOM     18  N   UNL     1      46.996  82.024  40.072  0.00  0.00    -0.236 NA
ENDROOT
BRANCH   9  19
ATOM     19  C   UNL     1      46.256  78.760  42.640  0.00  0.00    +0.143 C 
BRANCH  19  20
ATOM     20  C   UNL     1      46.127  77.424  42.001  0.00  0.00    +0.207 C 
ATOM     21  O   UNL     1      47.452  77.093  41.575  0.00  0.00    -0.218 OA
BRANCH  20  22
ATOM     22  C   UNL     1      45.749  76.371  43.010  0.00  0.00    +0.217 C 
ATOM     23  O   UNL     1      46.267  76.704  44.256  0.00  0.00    -0.218 OA
BRANCH  22  24
ATOM     24  C   UNL     1      44.226  76.303  43.173  0.00  0.00    +0.217 C 
ATOM     25  O   UNL     1      43.611  76.157  41.946  0.00  0.00    -0.217 OA
BRANCH  24  26
ATOM     26  C   UNL     1      43.942  75.019  43.961  0.00  0.00    +0.217 C 
ATOM     27  O   UNL     1      44.155  73.971  43.049  0.00  0.00    -0.217 OA
ENDBRANCH  24  26
ENDBRANCH  22  24
ENDBRANCH  20  22
ENDBRANCH  19  20
ENDBRANCH   9  19
TORSDOF 5
