REMARK  Name = Ribociclib_Succinate
REMARK  6 active torsions:
REMARK  status: ('A' for Active; 'I' for Inactive)
REMARK    1  A    between atoms: C_4  and  C_6
REMARK    2  A    between atoms: N_14  and  C_15
REMARK    3  A    between atoms: C_24  and  N_27
REMARK    4  A    between atoms: C_33  and  C_34
REMARK    5  A    between atoms: C_33  and  C_38
REMARK    6  A    between atoms: C_34  and  C_35
REMARK                            x       y       z     vdW  Elec       q    Type
REMARK                         _______ _______ _______ _____ _____    ______ ____
ROOT
ATOM      1  C   UNL     1      49.262  82.041  40.615  0.00  0.00    +0.115 A 
ATOM      2  C   UNL     1      48.765  82.248  39.318  0.00  0.00    +0.026 A 
ATOM      3  C   UNL     1      47.434  81.939  39.413  0.00  0.00    +0.055 A 
ATOM      4  C   UNL     1      46.465  81.964  38.430  0.00  0.00    +0.105 A 
ATOM      5  N   UNL     1      45.209  81.610  38.751  0.00  0.00    -0.210 NA
ATOM      6  C   UNL     1      44.904  81.232  40.030  0.00  0.00    +0.244 A 
ATOM      7  N   UNL     1      45.865  81.223  40.942  0.00  0.00    -0.195 NA
ATOM      8  C   UNL     1      47.155  81.572  40.680  0.00  0.00    +0.148 A 
ATOM      9  N   UNL     1      48.300  81.635  41.442  0.00  0.00    -0.311 N 
ATOM     10  N   UNL     1      43.552  80.889  40.286  0.00  0.00    -0.159 NA
ATOM     11  C   UNL     1      42.984  79.734  39.631  0.00  0.00    +0.155 A 
ATOM     12  N   UNL     1      41.714  79.357  39.814  0.00  0.00    -0.226 NA
ATOM     13  C   UNL     1      41.144  78.293  39.209  0.00  0.00    +0.115 A 
ATOM     14  C   UNL     1      41.906  77.532  38.344  0.00  0.00    +0.067 A 
ATOM     15  C   UNL     1      43.211  77.897  38.139  0.00  0.00    +0.019 A 
ATOM     16  C   UNL     1      43.754  78.977  38.765  0.00  0.00    +0.037 A 
ENDROOT
BRANCH  14  17
ATOM     17  N   UNL     1      41.367  76.414  37.669  0.00  0.00    -0.303 N 
ATOM     18  C   UNL     1      40.097  76.470  37.007  0.00  0.00    +0.110 C 
ATOM     19  C   UNL     1      39.479  75.091  37.050  0.00  0.00    +0.110 C 
ATOM     20  N   UNL     1      39.830  74.384  38.278  0.00  0.00    -0.214 NA
ATOM     21  C   UNL     1      41.241  74.077  38.342  0.00  0.00    +0.110 C 
ATOM     22  C   UNL     1      42.079  75.142  37.632  0.00  0.00    +0.110 C 
ENDBRANCH  14  17
BRANCH   1  26
ATOM     23  C   UNL     1      52.537  83.745  41.499  0.00  0.00    +0.115 C 
ATOM     24  N   UNL     1      51.136  83.530  41.223  0.00  0.00    -0.271 N 
ATOM     25  C   UNL     1      50.258  84.679  41.276  0.00  0.00    +0.115 C 
ATOM     26  C   UNL     1      50.647  82.243  40.914  0.00  0.00    +0.265 C 
ATOM     27  O   UNL     1      51.444  81.281  40.902  0.00  0.00    -0.268 OA
ENDBRANCH   1  26
BRANCH   9  28
ATOM     28  C   UNL     1      48.223  81.297  42.812  0.00  0.00    +0.087 C 
ATOM     29  C   UNL     1      47.201  82.248  43.467  0.00  0.00    +0.023 C 
ATOM     30  C   UNL     1      48.062  83.460  43.800  0.00  0.00    +0.002 C 
ATOM     31  C   UNL     1      49.457  82.962  43.998  0.00  0.00    +0.002 C 
ATOM     32  C   UNL     1      49.368  81.491  43.701  0.00  0.00    +0.023 C 
ENDBRANCH   9  28
TORSDOF 3
REMARK  Name = Ribociclib_Succinate
REMARK  6 active torsions:
REMARK  status: ('A' for Active; 'I' for Inactive)
REMARK    1  A    between atoms: C_4  and  C_6
REMARK    2  A    between atoms: N_14  and  C_15
REMARK    3  A    between atoms: C_24  and  N_27
REMARK    4  A    between atoms: C_33  and  C_34
REMARK    5  A    between atoms: C_33  and  C_38
REMARK    6  A    between atoms: C_34  and  C_35
REMARK                            x       y       z     vdW  Elec       q    Type
REMARK                         _______ _______ _______ _____ _____    ______ ____
ROOT
ATOM      1  C   UNL     1      46.549  79.851  40.961  0.00  0.00    +0.126 C 
ENDROOT
BRANCH   1   2
ATOM      2  C   UNL     1      46.956  80.560  42.166  0.00  0.00    +0.365 C 
ATOM      3  O   UNL     1      46.120  81.204  42.830  0.00  0.00    -0.246 OA
ATOM      4  O   UNL     1      48.263  80.532  42.591  0.00  0.00    -0.246 OA
ENDBRANCH   1   2
BRANCH   1   5
ATOM      5  C   UNL     1      45.137  80.027  40.527  0.00  0.00    +0.126 C 
BRANCH   5   6
ATOM      6  C   UNL     1      44.916  79.899  39.074  0.00  0.00    +0.365 C 
ATOM      7  O   UNL     1      45.831  79.880  38.214  0.00  0.00    -0.246 OA
ATOM      8  O   UNL     1      43.607  79.788  38.562  0.00  0.00    -0.246 OA
ENDBRANCH   5   6
ENDBRANCH   1   5
TORSDOF 3
