REMARK  Name = Ridogrel
REMARK  9 active torsions:
REMARK  status: ('A' for Active; 'I' for Inactive)
REMARK    1  A    between atoms: C_3  and  C_11
REMARK    2  A    between atoms: C_5  and  C_7
REMARK    3  A    between atoms: C_11  and  C_21
REMARK    4  A    between atoms: N_12  and  O_13
REMARK    5  A    between atoms: O_13  and  C_14
REMARK    6  A    between atoms: C_14  and  C_15
REMARK    7  A    between atoms: C_15  and  C_16
REMARK    8  A    between atoms: C_16  and  C_17
REMARK    9  A    between atoms: C_17  and  C_18
REMARK                            x       y       z     vdW  Elec       q    Type
REMARK                         _______ _______ _______ _____ _____    ______ ____
ROOT
ATOM      1  C   UNL     1      47.339  80.641  41.458  0.00  0.00    +0.121 C 
ATOM      2  N   UNL     1      46.865  79.532  41.894  0.00  0.00    -0.083 NA
ENDROOT
BRANCH   1   5
ATOM      3  C   UNL     1      50.720  81.172  43.088  0.00  0.00    -0.000 A 
ATOM      4  C   UNL     1      49.650  80.552  42.442  0.00  0.00    +0.002 A 
ATOM      5  C   UNL     1      48.464  81.177  42.233  0.00  0.00    +0.021 A 
ATOM      6  C   UNL     1      48.324  82.502  42.697  0.00  0.00    +0.005 A 
ATOM      7  C   UNL     1      49.371  83.105  43.329  0.00  0.00    +0.071 A 
ATOM      8  C   UNL     1      50.568  82.447  43.526  0.00  0.00    +0.004 A 
BRANCH   7   9
ATOM      9  C   UNL     1      49.235  84.503  43.824  0.00  0.00    +0.419 C 
ATOM     10  F   UNL     1      50.014  84.664  44.948  0.00  0.00    -0.166 F 
ATOM     11  F   UNL     1      47.918  84.731  44.137  0.00  0.00    -0.166 F 
ATOM     12  F   UNL     1      49.623  85.383  42.828  0.00  0.00    -0.166 F 
ENDBRANCH   7   9
ENDBRANCH   1   5
BRANCH   1  13
ATOM     13  C   UNL     1      46.805  81.256  40.271  0.00  0.00    +0.040 A 
ATOM     14  C   UNL     1      45.505  81.177  39.882  0.00  0.00    +0.100 A 
ATOM     15  N   UNL     1      45.001  81.879  38.822  0.00  0.00    -0.242 NA
ATOM     16  C   UNL     1      45.783  82.686  38.107  0.00  0.00    +0.099 A 
ATOM     17  C   UNL     1      47.115  82.834  38.417  0.00  0.00    +0.021 A 
ATOM     18  C   UNL     1      47.611  82.112  39.502  0.00  0.00    +0.005 A 
ENDBRANCH   1  13
BRANCH   2  19
ATOM     19  O   UNL     1      45.897  78.759  41.486  0.00  0.00    -0.377 OA
BRANCH  19  20
ATOM     20  C   UNL     1      45.954  77.327  41.386  0.00  0.00    +0.238 C 
BRANCH  20  21
ATOM     21  C   UNL     1      44.520  76.859  41.340  0.00  0.00    +0.051 C 
BRANCH  21  22
ATOM     22  C   UNL     1      43.912  77.006  39.968  0.00  0.00    +0.016 C 
BRANCH  22  23
ATOM     23  C   UNL     1      42.545  76.424  39.858  0.00  0.00    +0.114 C 
BRANCH  23  24
ATOM     24  C   UNL     1      42.076  76.548  38.459  0.00  0.00    +0.365 C 
ATOM     25  O   UNL     1      41.035  75.955  38.095  0.00  0.00    -0.246 OA
ATOM     26  O   UNL     1      42.753  77.313  37.503  0.00  0.00    -0.246 OA
ENDBRANCH  23  24
ENDBRANCH  22  23
ENDBRANCH  21  22
ENDBRANCH  20  21
ENDBRANCH  19  20
ENDBRANCH   2  19
TORSDOF 9
