REMARK  Name = Rifaximin
REMARK  3 active torsions:
REMARK  status: ('A' for Active; 'I' for Inactive)
REMARK    1  A    between atoms: C_27  and  O_43
REMARK    2  A    between atoms: C_29  and  O_38
REMARK    3  A    between atoms: O_38  and  C_39
REMARK                            x       y       z     vdW  Elec       q    Type
REMARK                         _______ _______ _______ _____ _____    ______ ____
ROOT
ATOM      1  C   UNL     1      48.579  80.370  40.999  0.00  0.00    +0.007 C 
ATOM      2  C   UNL     1      48.132  78.954  40.857  0.00  0.00    +0.053 C 
ATOM      3  C   UNL     1      47.345  78.652  39.655  0.00  0.00    -0.024 C 
ATOM      4  C   UNL     1      46.966  79.445  38.688  0.00  0.00    -0.005 C 
ATOM      5  C   UNL     1      47.173  80.847  38.464  0.00  0.00    -0.000 C 
ATOM      6  C   UNL     1      46.535  81.908  38.898  0.00  0.00    +0.033 C 
ATOM      7  C   UNL     1      45.386  82.016  39.758  0.00  0.00    +0.265 C 
ATOM      8  O   UNL     1      45.229  83.158  40.352  0.00  0.00    -0.268 OA
ATOM      9  N   UNL     1      44.377  81.064  40.070  0.00  0.00    -0.171 NA
ATOM     10  C   UNL     1      44.398  79.795  40.717  0.00  0.00    +0.130 A 
ATOM     11  C   UNL     1      44.742  79.386  41.961  0.00  0.00    +0.215 A 
ATOM     12  C   UNL     1      44.573  78.046  42.385  0.00  0.00    +0.081 A 
ATOM     13  C   UNL     1      44.046  77.031  41.578  0.00  0.00    +0.031 A 
ATOM     14  C   UNL     1      43.941  75.774  42.077  0.00  0.00    +0.077 A 
ATOM     15  C   UNL     1      44.383  75.587  43.386  0.00  0.00    +0.145 A 
ATOM     16  C   UNL     1      44.903  76.540  44.225  0.00  0.00    +0.051 A 
ATOM     17  C   UNL     1      44.997  77.796  43.710  0.00  0.00    +0.198 A 
ATOM     18  O   UNL     1      45.515  78.814  44.522  0.00  0.00    -0.287 OA
ATOM     19  C   UNL     1      45.347  76.290  45.624  0.00  0.00    +0.038 C 
ATOM     20  O   UNL     1      44.239  74.208  43.775  0.00  0.00    -0.443 OA
ATOM     21  C   UNL     1      44.481  73.558  42.479  0.00  0.00    +0.326 C 
ATOM     22  C   UNL     1      43.451  74.448  41.756  0.00  0.00    +0.251 C 
ATOM     23  O   UNL     1      42.578  73.744  41.167  0.00  0.00    -0.284 OA
ATOM     24  O   UNL     1      45.750  73.797  42.022  0.00  0.00    -0.440 OA
ATOM     25  C   UNL     1      46.641  73.049  41.293  0.00  0.00    +0.174 C 
ATOM     26  C   UNL     1      47.551  72.317  41.916  0.00  0.00    +0.043 C 
ATOM     27  C   UNL     1      47.710  72.222  43.381  0.00  0.00    +0.144 C 
ATOM     28  C   UNL     1      48.169  73.496  44.024  0.00  0.00    +0.072 C 
ATOM     29  C   UNL     1      49.475  73.942  43.476  0.00  0.00    +0.174 C 
ATOM     30  C   UNL     1      49.783  75.402  43.561  0.00  0.00    +0.071 C 
ATOM     31  C   UNL     1      49.021  76.256  42.567  0.00  0.00    +0.158 C 
ATOM     32  C   UNL     1      49.718  77.538  42.227  0.00  0.00    +0.061 C 
ATOM     33  C   UNL     1      49.337  77.993  40.846  0.00  0.00    +0.158 C 
ATOM     34  O   UNL     1      50.398  78.793  40.357  0.00  0.00    -0.223 OA
ATOM     35  C   UNL     1      51.231  77.399  42.238  0.00  0.00    +0.005 C 
ATOM     36  O   UNL     1      48.895  75.498  41.407  0.00  0.00    -0.223 OA
ATOM     37  C   UNL     1      49.606  76.010  44.910  0.00  0.00    +0.006 C 
ATOM     38  C   UNL     1      48.117  73.259  45.500  0.00  0.00    +0.007 C 
ATOM     39  C   UNL     1      44.096  72.148  42.575  0.00  0.00    +0.100 C 
ATOM     40  C   UNL     1      43.704  77.509  40.282  0.00  0.00    +0.101 A 
ATOM     41  C   UNL     1      43.864  78.788  39.869  0.00  0.00    +0.101 A 
ATOM     42  N   UNL     1      43.423  78.786  38.570  0.00  0.00    -0.288 N 
ATOM     43  C   UNL     1      43.374  79.767  37.664  0.00  0.00    +0.081 A 
ATOM     44  C   UNL     1      42.896  79.519  36.371  0.00  0.00    +0.015 A 
ATOM     45  C   UNL     1      42.473  78.260  36.021  0.00  0.00    -0.017 A 
ATOM     46  C   UNL     1      42.543  77.293  36.973  0.00  0.00    +0.033 A 
ATOM     47  C   UNL     1      43.017  77.563  38.237  0.00  0.00    +0.147 A 
ATOM     48  N   UNL     1      43.182  76.769  39.272  0.00  0.00    -0.226 NA
ATOM     49  C   UNL     1      41.969  78.028  34.640  0.00  0.00    +0.031 C 
ATOM     50  O   UNL     1      45.314  80.169  43.034  0.00  0.00    -0.285 OA
ATOM     51  C   UNL     1      47.152  83.241  38.426  0.00  0.00    +0.036 C 
ENDROOT
BRANCH  27  52
ATOM     52  O   UNL     1      48.598  71.214  43.707  0.00  0.00    -0.349 OA
ATOM     53  C   UNL     1      49.656  71.056  42.851  0.00  0.00    +0.174 C 
ENDBRANCH  27  52
BRANCH  29  54
ATOM     54  O   UNL     1      50.557  73.113  43.864  0.00  0.00    -0.452 OA
BRANCH  54  55
ATOM     55  C   UNL     1      51.484  73.397  44.824  0.00  0.00    +0.317 C 
ATOM     56  O   UNL     1      52.580  72.810  44.703  0.00  0.00    -0.250 OA
ATOM     57  C   UNL     1      51.188  74.344  45.931  0.00  0.00    +0.121 C 
ENDBRANCH  54  55
ENDBRANCH  29  54
TORSDOF 3
