REMARK  Name = Rifamycin_b
REMARK  6 active torsions:
REMARK  status: ('A' for Active; 'I' for Inactive)
REMARK    1  A    between atoms: C_12  and  O_49
REMARK    2  A    between atoms: C_28  and  O_44
REMARK    3  A    between atoms: C_30  and  O_39
REMARK    4  A    between atoms: O_39  and  C_40
REMARK    5  A    between atoms: O_49  and  C_50
REMARK    6  A    between atoms: C_50  and  C_51
REMARK                            x       y       z     vdW  Elec       q    Type
REMARK                         _______ _______ _______ _____ _____    ______ ____
ROOT
ATOM      1  C   UNL     1      48.771  81.689  40.777  0.00  0.00    +0.007 C 
ATOM      2  C   UNL     1      48.449  80.418  41.552  0.00  0.00    +0.053 C 
ATOM      3  C   UNL     1      47.492  79.531  40.881  0.00  0.00    -0.024 C 
ATOM      4  C   UNL     1      47.023  79.569  39.649  0.00  0.00    -0.005 C 
ATOM      5  C   UNL     1      47.244  80.444  38.544  0.00  0.00    -0.000 C 
ATOM      6  C   UNL     1      46.663  81.596  38.204  0.00  0.00    +0.033 C 
ATOM      7  C   UNL     1      45.605  82.326  38.864  0.00  0.00    +0.265 C 
ATOM      8  O   UNL     1      45.919  83.538  39.204  0.00  0.00    -0.268 OA
ATOM      9  N   UNL     1      44.263  81.873  39.183  0.00  0.00    -0.172 NA
ATOM     10  C   UNL     1      44.019  80.483  39.623  0.00  0.00    +0.116 A 
ATOM     11  C   UNL     1      43.792  79.489  38.687  0.00  0.00    +0.057 A 
ATOM     12  C   UNL     1      43.584  78.142  38.992  0.00  0.00    +0.141 A 
ATOM     13  C   UNL     1      43.590  77.702  40.291  0.00  0.00    +0.046 A 
ATOM     14  C   UNL     1      43.811  78.673  41.243  0.00  0.00    +0.082 A 
ATOM     15  C   UNL     1      44.026  80.049  40.936  0.00  0.00    +0.214 A 
ATOM     16  O   UNL     1      44.239  80.804  42.164  0.00  0.00    -0.285 OA
ATOM     17  C   UNL     1      43.848  78.364  42.604  0.00  0.00    +0.198 A 
ATOM     18  C   UNL     1      43.681  77.095  43.085  0.00  0.00    +0.051 A 
ATOM     19  C   UNL     1      43.473  76.145  42.128  0.00  0.00    +0.145 A 
ATOM     20  C   UNL     1      43.419  76.401  40.781  0.00  0.00    +0.079 A 
ATOM     21  C   UNL     1      43.187  75.124  40.179  0.00  0.00    +0.251 C 
ATOM     22  O   UNL     1      42.643  74.543  39.211  0.00  0.00    -0.284 OA
ATOM     23  C   UNL     1      43.907  74.172  41.145  0.00  0.00    +0.326 C 
ATOM     24  O   UNL     1      43.283  74.734  42.352  0.00  0.00    -0.443 OA
ATOM     25  O   UNL     1      45.253  74.406  41.204  0.00  0.00    -0.440 OA
ATOM     26  C   UNL     1      46.364  74.034  40.517  0.00  0.00    +0.174 C 
ATOM     27  C   UNL     1      47.522  73.700  41.054  0.00  0.00    +0.043 C 
ATOM     28  C   UNL     1      47.882  73.651  42.499  0.00  0.00    +0.144 C 
ATOM     29  C   UNL     1      49.206  74.341  42.757  0.00  0.00    +0.072 C 
ATOM     30  C   UNL     1      49.234  75.196  43.949  0.00  0.00    +0.174 C 
ATOM     31  C   UNL     1      49.996  76.494  43.844  0.00  0.00    +0.071 C 
ATOM     32  C   UNL     1      49.212  77.601  43.186  0.00  0.00    +0.158 C 
ATOM     33  C   UNL     1      49.804  78.950  43.189  0.00  0.00    +0.061 C 
ATOM     34  C   UNL     1      49.713  79.769  41.968  0.00  0.00    +0.158 C 
ATOM     35  O   UNL     1      50.101  78.935  40.884  0.00  0.00    -0.223 OA
ATOM     36  C   UNL     1      51.285  78.989  43.610  0.00  0.00    +0.005 C 
ATOM     37  O   UNL     1      47.997  77.597  43.924  0.00  0.00    -0.223 OA
ATOM     38  C   UNL     1      50.313  76.935  45.254  0.00  0.00    +0.006 C 
ATOM     39  C   UNL     1      49.669  74.946  41.457  0.00  0.00    +0.007 C 
ATOM     40  C   UNL     1      43.426  72.782  41.030  0.00  0.00    +0.100 C 
ATOM     41  C   UNL     1      43.715  76.837  44.533  0.00  0.00    +0.038 C 
ATOM     42  O   UNL     1      44.061  79.383  43.542  0.00  0.00    -0.287 OA
ATOM     43  C   UNL     1      47.276  82.221  36.924  0.00  0.00    +0.036 C 
ENDROOT
BRANCH  28  44
ATOM     44  O   UNL     1      47.965  72.272  42.811  0.00  0.00    -0.349 OA
ATOM     45  C   UNL     1      49.021  71.978  43.654  0.00  0.00    +0.174 C 
ENDBRANCH  28  44
BRANCH  30  46
ATOM     46  O   UNL     1      47.956  75.384  44.518  0.00  0.00    -0.452 OA
BRANCH  46  47
ATOM     47  C   UNL     1      47.717  75.412  45.903  0.00  0.00    +0.317 C 
ATOM     48  O   UNL     1      46.953  76.318  46.382  0.00  0.00    -0.250 OA
ATOM     49  C   UNL     1      48.293  74.453  46.859  0.00  0.00    +0.121 C 
ENDBRANCH  46  47
ENDBRANCH  30  46
BRANCH  12  50
ATOM     50  O   UNL     1      43.377  77.363  37.787  0.00  0.00    -0.464 OA
BRANCH  50  51
ATOM     51  C   UNL     1      42.507  77.494  36.790  0.00  0.00    +0.319 C 
BRANCH  51  52
ATOM     52  C   UNL     1      41.068  77.266  37.033  0.00  0.00    +0.408 C 
ATOM     53  O   UNL     1      40.703  76.769  38.128  0.00  0.00    -0.241 OA
ATOM     54  O   UNL     1      40.078  77.573  36.115  0.00  0.00    -0.241 OA
ENDBRANCH  51  52
ENDBRANCH  50  51
ENDBRANCH  12  50
TORSDOF 6
