REMARK  Name = Rifamycin
REMARK  3 active torsions:
REMARK  status: ('A' for Active; 'I' for Inactive)
REMARK    1  A    between atoms: C_28  and  O_44
REMARK    2  A    between atoms: C_30  and  O_39
REMARK    3  A    between atoms: O_39  and  C_40
REMARK                            x       y       z     vdW  Elec       q    Type
REMARK                         _______ _______ _______ _____ _____    ______ ____
ROOT
ATOM      1  C   UNL     1      51.067  83.546  42.116  0.00  0.00    +0.007 C 
ATOM      2  C   UNL     1      50.346  82.364  42.727  0.00  0.00    +0.053 C 
ATOM      3  C   UNL     1      49.648  82.752  43.944  0.00  0.00    -0.024 C 
ATOM      4  C   UNL     1      48.695  83.552  44.254  0.00  0.00    -0.005 C 
ATOM      5  C   UNL     1      47.806  84.486  43.636  0.00  0.00    -0.000 C 
ATOM      6  C   UNL     1      47.408  84.868  42.466  0.00  0.00    +0.033 C 
ATOM      7  C   UNL     1      47.722  84.475  41.112  0.00  0.00    +0.265 C 
ATOM      8  O   UNL     1      47.922  85.423  40.229  0.00  0.00    -0.268 OA
ATOM      9  N   UNL     1      47.853  83.159  40.574  0.00  0.00    -0.172 NA
ATOM     10  C   UNL     1      46.829  82.111  40.694  0.00  0.00    +0.116 A 
ATOM     11  C   UNL     1      46.753  81.341  41.840  0.00  0.00    +0.062 A 
ATOM     12  C   UNL     1      45.874  80.263  41.990  0.00  0.00    +0.197 A 
ATOM     13  C   UNL     1      45.007  79.864  41.021  0.00  0.00    +0.051 A 
ATOM     14  C   UNL     1      45.059  80.630  39.857  0.00  0.00    +0.082 A 
ATOM     15  C   UNL     1      45.943  81.726  39.700  0.00  0.00    +0.214 A 
ATOM     16  O   UNL     1      45.713  82.305  38.391  0.00  0.00    -0.285 OA
ATOM     17  C   UNL     1      44.287  80.328  38.741  0.00  0.00    +0.198 A 
ATOM     18  C   UNL     1      43.417  79.251  38.703  0.00  0.00    +0.051 A 
ATOM     19  C   UNL     1      43.387  78.521  39.845  0.00  0.00    +0.145 A 
ATOM     20  C   UNL     1      44.140  78.804  40.969  0.00  0.00    +0.079 A 
ATOM     21  C   UNL     1      43.754  77.755  41.892  0.00  0.00    +0.251 C 
ATOM     22  O   UNL     1      43.575  77.581  43.116  0.00  0.00    -0.284 OA
ATOM     23  C   UNL     1      43.531  76.578  40.948  0.00  0.00    +0.326 C 
ATOM     24  O   UNL     1      42.594  77.350  40.085  0.00  0.00    -0.443 OA
ATOM     25  O   UNL     1      44.604  76.297  40.181  0.00  0.00    -0.440 OA
ATOM     26  C   UNL     1      45.552  75.398  39.950  0.00  0.00    +0.174 C 
ATOM     27  C   UNL     1      46.754  75.309  40.446  0.00  0.00    +0.043 C 
ATOM     28  C   UNL     1      47.365  76.285  41.465  0.00  0.00    +0.144 C 
ATOM     29  C   UNL     1      48.515  76.868  40.756  0.00  0.00    +0.072 C 
ATOM     30  C   UNL     1      49.579  77.613  41.406  0.00  0.00    +0.174 C 
ATOM     31  C   UNL     1      49.495  78.040  42.817  0.00  0.00    +0.071 C 
ATOM     32  C   UNL     1      49.668  79.526  43.056  0.00  0.00    +0.158 C 
ATOM     33  C   UNL     1      51.074  79.978  43.316  0.00  0.00    +0.061 C 
ATOM     34  C   UNL     1      51.447  81.336  42.926  0.00  0.00    +0.158 C 
ATOM     35  O   UNL     1      52.388  81.910  43.776  0.00  0.00    -0.223 OA
ATOM     36  C   UNL     1      51.452  79.764  44.790  0.00  0.00    +0.005 C 
ATOM     37  O   UNL     1      48.967  79.808  44.258  0.00  0.00    -0.223 OA
ATOM     38  C   UNL     1      50.486  77.234  43.670  0.00  0.00    +0.006 C 
ATOM     39  C   UNL     1      47.954  77.660  39.542  0.00  0.00    +0.007 C 
ATOM     40  C   UNL     1      42.782  75.531  41.642  0.00  0.00    +0.100 C 
ATOM     41  C   UNL     1      42.621  78.984  37.488  0.00  0.00    +0.038 C 
ATOM     42  O   UNL     1      44.354  81.106  37.584  0.00  0.00    -0.287 OA
ATOM     43  O   UNL     1      46.077  79.701  43.324  0.00  0.00    -0.287 OA
ATOM     44  C   UNL     1      46.352  86.023  42.457  0.00  0.00    +0.036 C 
ENDROOT
BRANCH  28  45
ATOM     45  O   UNL     1      47.778  75.422  42.478  0.00  0.00    -0.349 OA
ATOM     46  C   UNL     1      48.916  74.713  42.236  0.00  0.00    +0.174 C 
ENDBRANCH  28  45
BRANCH  30  47
ATOM     47  O   UNL     1      50.858  76.959  41.229  0.00  0.00    -0.452 OA
BRANCH  47  48
ATOM     48  C   UNL     1      51.744  77.259  40.238  0.00  0.00    +0.317 C 
ATOM     49  O   UNL     1      51.826  76.497  39.251  0.00  0.00    -0.250 OA
ATOM     50  C   UNL     1      52.621  78.456  40.279  0.00  0.00    +0.121 C 
ENDBRANCH  47  48
ENDBRANCH  30  47
TORSDOF 3
