REMARK  Name = Rifapentine
REMARK  6 active torsions:
REMARK  status: ('A' for Active; 'I' for Inactive)
REMARK    1  A    between atoms: C_11  and  C_50
REMARK    2  A    between atoms: C_28  and  O_44
REMARK    3  A    between atoms: C_30  and  O_39
REMARK    4  A    between atoms: O_39  and  C_40
REMARK    5  A    between atoms: N_51  and  N_52
REMARK    6  A    between atoms: N_55  and  C_58
REMARK                            x       y       z     vdW  Elec       q    Type
REMARK                         _______ _______ _______ _____ _____    ______ ____
ROOT
ATOM      1  C   UNL     1      49.034  81.256  39.701  0.00  0.00    +0.007 C 
ATOM      2  C   UNL     1      49.267  81.806  41.093  0.00  0.00    +0.053 C 
ATOM      3  C   UNL     1      48.064  82.056  41.879  0.00  0.00    -0.024 C 
ATOM      4  C   UNL     1      46.944  82.690  41.619  0.00  0.00    -0.005 C 
ATOM      5  C   UNL     1      46.428  83.391  40.483  0.00  0.00    -0.000 C 
ATOM      6  C   UNL     1      45.777  83.036  39.407  0.00  0.00    +0.033 C 
ATOM      7  C   UNL     1      45.301  81.754  38.914  0.00  0.00    +0.265 C 
ATOM      8  O   UNL     1      44.316  81.942  38.004  0.00  0.00    -0.268 OA
ATOM      9  N   UNL     1      45.644  80.419  39.174  0.00  0.00    -0.172 NA
ATOM     10  C   UNL     1      44.906  79.367  39.937  0.00  0.00    +0.117 A 
ATOM     11  C   UNL     1      44.103  78.401  39.342  0.00  0.00    +0.078 A 
ATOM     12  C   UNL     1      43.586  77.312  40.085  0.00  0.00    +0.199 A 
ATOM     13  C   UNL     1      43.795  77.092  41.403  0.00  0.00    +0.051 A 
ATOM     14  C   UNL     1      44.581  78.046  42.026  0.00  0.00    +0.082 A 
ATOM     15  C   UNL     1      45.103  79.144  41.289  0.00  0.00    +0.214 A 
ATOM     16  O   UNL     1      45.825  79.931  42.270  0.00  0.00    -0.285 OA
ATOM     17  C   UNL     1      44.948  77.963  43.365  0.00  0.00    +0.198 A 
ATOM     18  C   UNL     1      44.551  76.918  44.150  0.00  0.00    +0.051 A 
ATOM     19  C   UNL     1      43.780  75.966  43.543  0.00  0.00    +0.145 A 
ATOM     20  C   UNL     1      43.408  76.041  42.230  0.00  0.00    +0.079 A 
ATOM     21  C   UNL     1      42.620  74.856  42.009  0.00  0.00    +0.251 C 
ATOM     22  O   UNL     1      41.669  74.378  41.372  0.00  0.00    -0.284 OA
ATOM     23  C   UNL     1      43.298  73.889  42.975  0.00  0.00    +0.326 C 
ATOM     24  O   UNL     1      43.257  74.781  44.133  0.00  0.00    -0.443 OA
ATOM     25  O   UNL     1      44.632  73.683  42.694  0.00  0.00    -0.440 OA
ATOM     26  C   UNL     1      45.375  73.184  41.694  0.00  0.00    +0.174 C 
ATOM     27  C   UNL     1      46.672  73.326  41.659  0.00  0.00    +0.043 C 
ATOM     28  C   UNL     1      47.596  74.001  42.607  0.00  0.00    +0.144 C 
ATOM     29  C   UNL     1      48.585  74.826  41.862  0.00  0.00    +0.072 C 
ATOM     30  C   UNL     1      49.081  76.100  42.509  0.00  0.00    +0.174 C 
ATOM     31  C   UNL     1      49.358  77.164  41.460  0.00  0.00    +0.071 C 
ATOM     32  C   UNL     1      49.282  78.572  41.967  0.00  0.00    +0.158 C 
ATOM     33  C   UNL     1      50.339  79.503  41.391  0.00  0.00    +0.061 C 
ATOM     34  C   UNL     1      50.207  80.927  41.877  0.00  0.00    +0.158 C 
ATOM     35  O   UNL     1      49.795  80.844  43.212  0.00  0.00    -0.223 OA
ATOM     36  C   UNL     1      51.748  79.088  41.809  0.00  0.00    +0.005 C 
ATOM     37  O   UNL     1      49.394  78.567  43.342  0.00  0.00    -0.223 OA
ATOM     38  C   UNL     1      48.520  76.955  40.213  0.00  0.00    +0.006 C 
ATOM     39  C   UNL     1      49.816  73.927  41.600  0.00  0.00    +0.007 C 
ATOM     40  C   UNL     1      42.455  72.692  43.227  0.00  0.00    +0.100 C 
ATOM     41  C   UNL     1      44.925  76.865  45.563  0.00  0.00    +0.038 C 
ATOM     42  O   UNL     1      45.747  78.946  43.968  0.00  0.00    -0.287 OA
ATOM     43  O   UNL     1      42.800  76.499  39.145  0.00  0.00    -0.286 OA
ATOM     44  C   UNL     1      45.426  84.257  38.486  0.00  0.00    +0.036 C 
ENDROOT
BRANCH  28  45
ATOM     45  O   UNL     1      47.010  74.696  43.623  0.00  0.00    -0.349 OA
ATOM     46  C   UNL     1      47.399  74.204  44.879  0.00  0.00    +0.174 C 
ENDBRANCH  28  45
BRANCH  11  47
ATOM     47  C   UNL     1      43.470  78.314  37.942  0.00  0.00    +0.122 C 
ATOM     48  N   UNL     1      42.229  78.422  37.784  0.00  0.00    -0.180 NA
BRANCH  48  49
ATOM     49  N   UNL     1      41.228  77.617  37.413  0.00  0.00    -0.230 N 
ATOM     50  C   UNL     1      41.576  76.244  36.993  0.00  0.00    +0.128 C 
ATOM     51  C   UNL     1      40.575  75.730  35.987  0.00  0.00    +0.096 C 
ATOM     52  N   UNL     1      39.233  75.762  36.478  0.00  0.00    -0.271 NA
ATOM     53  C   UNL     1      39.036  76.671  37.557  0.00  0.00    +0.096 C 
ATOM     54  C   UNL     1      39.830  77.965  37.383  0.00  0.00    +0.128 C 
BRANCH  52  55
ATOM     55  C   UNL     1      38.340  75.910  35.365  0.00  0.00    +0.058 C 
ATOM     56  C   UNL     1      36.981  76.445  35.721  0.00  0.00    +0.016 C 
ATOM     57  C   UNL     1      36.168  76.122  34.485  0.00  0.00    +0.001 C 
ATOM     58  C   UNL     1      36.588  74.681  34.210  0.00  0.00    +0.001 C 
ATOM     59  C   UNL     1      37.999  74.556  34.742  0.00  0.00    +0.016 C 
ENDBRANCH  52  55
ENDBRANCH  48  49
ENDBRANCH  11  47
BRANCH  30  60
ATOM     60  O   UNL     1      50.242  75.815  43.252  0.00  0.00    -0.452 OA
BRANCH  60  61
ATOM     61  C   UNL     1      51.359  75.171  42.891  0.00  0.00    +0.317 C 
ATOM     62  O   UNL     1      52.195  74.800  43.755  0.00  0.00    -0.250 OA
ATOM     63  C   UNL     1      51.598  74.900  41.443  0.00  0.00    +0.121 C 
ENDBRANCH  60  61
ENDBRANCH  30  60
TORSDOF 6
