REMARK  Name = Rifampin
REMARK  5 active torsions:
REMARK  status: ('A' for Active; 'I' for Inactive)
REMARK    1  A    between atoms: C_11  and  C_50
REMARK    2  A    between atoms: C_28  and  O_44
REMARK    3  A    between atoms: C_30  and  O_39
REMARK    4  A    between atoms: O_39  and  C_40
REMARK    5  A    between atoms: N_51  and  N_52
REMARK                            x       y       z     vdW  Elec       q    Type
REMARK                         _______ _______ _______ _____ _____    ______ ____
ROOT
ATOM      1  C   UNL     1      47.626  84.020  41.072  0.00  0.00    +0.007 C 
ATOM      2  C   UNL     1      48.530  82.992  41.764  0.00  0.00    +0.053 C 
ATOM      3  C   UNL     1      48.966  82.004  40.806  0.00  0.00    -0.024 C 
ATOM      4  C   UNL     1      48.874  81.828  39.525  0.00  0.00    -0.005 C 
ATOM      5  C   UNL     1      48.306  82.483  38.386  0.00  0.00    -0.000 C 
ATOM      6  C   UNL     1      47.098  82.511  37.857  0.00  0.00    +0.033 C 
ATOM      7  C   UNL     1      45.853  81.853  38.271  0.00  0.00    +0.265 C 
ATOM      8  O   UNL     1      44.904  81.931  37.349  0.00  0.00    -0.268 OA
ATOM      9  N   UNL     1      45.517  81.187  39.432  0.00  0.00    -0.172 NA
ATOM     10  C   UNL     1      45.332  79.733  39.758  0.00  0.00    +0.117 A 
ATOM     11  C   UNL     1      44.192  79.243  40.373  0.00  0.00    +0.078 A 
ATOM     12  C   UNL     1      44.195  78.009  41.080  0.00  0.00    +0.199 A 
ATOM     13  C   UNL     1      45.277  77.204  41.218  0.00  0.00    +0.051 A 
ATOM     14  C   UNL     1      46.422  77.678  40.569  0.00  0.00    +0.082 A 
ATOM     15  C   UNL     1      46.445  78.899  39.856  0.00  0.00    +0.214 A 
ATOM     16  O   UNL     1      47.767  79.022  39.286  0.00  0.00    -0.285 OA
ATOM     17  C   UNL     1      47.669  77.079  40.749  0.00  0.00    +0.198 A 
ATOM     18  C   UNL     1      47.911  76.002  41.582  0.00  0.00    +0.051 A 
ATOM     19  C   UNL     1      46.789  75.571  42.231  0.00  0.00    +0.145 A 
ATOM     20  C   UNL     1      45.507  76.124  42.053  0.00  0.00    +0.079 A 
ATOM     21  C   UNL     1      44.700  75.323  42.992  0.00  0.00    +0.251 C 
ATOM     22  O   UNL     1      43.605  74.796  43.130  0.00  0.00    -0.284 OA
ATOM     23  C   UNL     1      45.717  75.213  44.080  0.00  0.00    +0.326 C 
ATOM     24  O   UNL     1      46.711  74.525  43.222  0.00  0.00    -0.443 OA
ATOM     25  O   UNL     1      45.660  74.595  45.253  0.00  0.00    -0.440 OA
ATOM     26  C   UNL     1      46.031  75.137  46.495  0.00  0.00    +0.174 C 
ATOM     27  C   UNL     1      47.001  75.807  46.943  0.00  0.00    +0.043 C 
ATOM     28  C   UNL     1      48.276  76.384  46.402  0.00  0.00    +0.144 C 
ATOM     29  C   UNL     1      48.247  77.862  46.616  0.00  0.00    +0.072 C 
ATOM     30  C   UNL     1      49.246  78.723  45.939  0.00  0.00    +0.174 C 
ATOM     31  C   UNL     1      48.922  79.222  44.560  0.00  0.00    +0.071 C 
ATOM     32  C   UNL     1      49.052  80.744  44.408  0.00  0.00    +0.158 C 
ATOM     33  C   UNL     1      47.894  81.307  43.651  0.00  0.00    +0.061 C 
ATOM     34  C   UNL     1      47.962  82.636  43.052  0.00  0.00    +0.158 C 
ATOM     35  O   UNL     1      48.498  83.539  44.015  0.00  0.00    -0.223 OA
ATOM     36  C   UNL     1      47.149  80.296  42.798  0.00  0.00    +0.005 C 
ATOM     37  O   UNL     1      50.298  80.997  43.922  0.00  0.00    -0.223 OA
ATOM     38  C   UNL     1      49.952  78.582  43.625  0.00  0.00    +0.006 C 
ATOM     39  C   UNL     1      48.448  78.053  48.145  0.00  0.00    +0.007 C 
ATOM     40  C   UNL     1      46.092  76.708  44.255  0.00  0.00    +0.100 C 
ATOM     41  C   UNL     1      49.259  75.388  41.709  0.00  0.00    +0.038 C 
ATOM     42  O   UNL     1      48.804  77.564  40.060  0.00  0.00    -0.287 OA
ATOM     43  O   UNL     1      42.844  77.797  41.601  0.00  0.00    -0.286 OA
ATOM     44  C   UNL     1      46.986  83.374  36.570  0.00  0.00    +0.036 C 
ENDROOT
BRANCH  28  45
ATOM     45  O   UNL     1      49.262  75.820  47.275  0.00  0.00    -0.349 OA
ATOM     46  C   UNL     1      50.372  75.523  46.511  0.00  0.00    +0.174 C 
ENDBRANCH  28  45
BRANCH  11  47
ATOM     47  C   UNL     1      42.719  79.683  40.276  0.00  0.00    +0.122 C 
ATOM     48  N   UNL     1      41.908  79.248  39.536  0.00  0.00    -0.180 NA
BRANCH  48  49
ATOM     49  N   UNL     1      41.100  78.671  38.740  0.00  0.00    -0.230 N 
ATOM     50  C   UNL     1      40.957  77.208  38.653  0.00  0.00    +0.128 C 
ATOM     51  C   UNL     1      40.309  76.880  37.318  0.00  0.00    +0.096 C 
ATOM     52  N   UNL     1      38.939  77.362  37.275  0.00  0.00    -0.268 NA
ATOM     53  C   UNL     1      38.860  78.748  37.699  0.00  0.00    +0.096 C 
ATOM     54  C   UNL     1      40.212  79.395  37.806  0.00  0.00    +0.128 C 
ATOM     55  C   UNL     1      38.089  76.512  38.088  0.00  0.00    +0.090 C 
ENDBRANCH  48  49
ENDBRANCH  11  47
BRANCH  30  56
ATOM     56  O   UNL     1      50.542  78.159  46.014  0.00  0.00    -0.452 OA
BRANCH  56  57
ATOM     57  C   UNL     1      51.300  78.117  47.168  0.00  0.00    +0.317 C 
ATOM     58  O   UNL     1      52.310  77.376  47.223  0.00  0.00    -0.250 OA
ATOM     59  C   UNL     1      50.920  78.950  48.348  0.00  0.00    +0.121 C 
ENDBRANCH  56  57
ENDBRANCH  30  56
TORSDOF 5
