REMARK  Name = Rilpivirine
REMARK  5 active torsions:
REMARK  status: ('A' for Active; 'I' for Inactive)
REMARK    1  A    between atoms: C_4  and  C_25
REMARK    2  A    between atoms: C_7  and  N_8
REMARK    3  A    between atoms: N_15  and  C_16
REMARK    4  A    between atoms: C_19  and  C_22
REMARK    5  A    between atoms: C_26  and  C_27
REMARK                            x       y       z     vdW  Elec       q    Type
REMARK                         _______ _______ _______ _____ _____    ______ ____
ROOT
ATOM      1  N   UNL     1      47.484  81.233  41.719  0.00  0.00    -0.195 NA
ATOM      2  C   UNL     1      46.859  81.553  40.455  0.00  0.00    +0.156 A 
ATOM      3  N   UNL     1      46.180  80.649  39.748  0.00  0.00    -0.195 NA
ATOM      4  C   UNL     1      45.583  80.938  38.556  0.00  0.00    +0.242 A 
ATOM      5  N   UNL     1      45.718  82.193  38.130  0.00  0.00    -0.211 NA
ATOM      6  C   UNL     1      46.382  83.157  38.776  0.00  0.00    +0.105 A 
ATOM      7  C   UNL     1      46.981  82.855  39.979  0.00  0.00    +0.057 A 
ATOM      8  N   UNL     1      44.910  79.892  37.888  0.00  0.00    -0.178 NA
ENDROOT
BRANCH   1  15
ATOM      9  C   UNL     1      46.266  83.548  42.893  0.00  0.00    +0.032 C 
ATOM     10  C   UNL     1      47.737  83.289  42.936  0.00  0.00    -0.007 A 
ATOM     11  C   UNL     1      48.578  84.208  43.571  0.00  0.00    -0.003 A 
ATOM     12  C   UNL     1      49.922  84.058  43.660  0.00  0.00    +0.000 A 
ATOM     13  C   UNL     1      50.480  82.905  43.074  0.00  0.00    -0.003 A 
ATOM     14  C   UNL     1      49.654  82.006  42.453  0.00  0.00    -0.007 A 
ATOM     15  C   UNL     1      48.298  82.182  42.376  0.00  0.00    +0.064 A 
ATOM     16  C   UNL     1      50.279  80.785  41.839  0.00  0.00    +0.032 C 
BRANCH  12  17
ATOM     17  C   UNL     1      50.805  84.989  44.288  0.00  0.00    +0.011 C 
ATOM     18  C   UNL     1      52.058  84.859  44.537  0.00  0.00    +0.078 C 
BRANCH  18  19
ATOM     19  C   UNL     1      53.004  85.765  45.038  0.00  0.00    +0.101 C 
ATOM     20  N   UNL     1      53.785  86.536  45.447  0.00  0.00    -0.191 NA
ENDBRANCH  18  19
ENDBRANCH  12  17
ENDBRANCH   1  15
BRANCH   8  21
ATOM     21  C   UNL     1      44.212  78.871  38.592  0.00  0.00    +0.074 A 
ATOM     22  C   UNL     1      44.823  78.312  39.723  0.00  0.00    +0.017 A 
ATOM     23  C   UNL     1      44.213  77.337  40.461  0.00  0.00    +0.012 A 
ATOM     24  C   UNL     1      42.954  76.874  40.097  0.00  0.00    +0.069 A 
ATOM     25  C   UNL     1      42.321  77.401  38.991  0.00  0.00    +0.012 A 
ATOM     26  C   UNL     1      42.980  78.387  38.276  0.00  0.00    +0.017 A 
BRANCH  24  27
ATOM     27  C   UNL     1      42.368  75.845  40.895  0.00  0.00    +0.100 C 
ATOM     28  N   UNL     1      41.897  74.998  41.566  0.00  0.00    -0.191 NA
ENDBRANCH  24  27
ENDBRANCH   8  21
TORSDOF 5
