REMARK  Name = Rimegepant
REMARK  4 active torsions:
REMARK  status: ('A' for Active; 'I' for Inactive)
REMARK    1  A    between atoms: C_3  and  O_21
REMARK    2  A    between atoms: C_11  and  C_12
REMARK    3  A    between atoms: O_21  and  C_22
REMARK    4  A    between atoms: C_27  and  N_30
REMARK                            x       y       z     vdW  Elec       q    Type
REMARK                         _______ _______ _______ _____ _____    ______ ____
ROOT
ATOM      1  C   UNL     1      51.638  82.572  45.408  0.00  0.00    +0.010 C 
ATOM      2  C   UNL     1      51.838  82.181  43.990  0.00  0.00    +0.050 C 
ATOM      3  C   UNL     1      50.576  82.203  43.155  0.00  0.00    +0.210 C 
ATOM      4  C   UNL     1      49.695  83.362  43.501  0.00  0.00    +0.096 A 
ATOM      5  C   UNL     1      49.971  84.528  44.139  0.00  0.00    +0.012 A 
ATOM      6  C   UNL     1      48.956  85.442  44.333  0.00  0.00    +0.000 A 
ATOM      7  C   UNL     1      47.683  85.184  43.889  0.00  0.00    +0.020 A 
ATOM      8  C   UNL     1      47.421  83.997  43.244  0.00  0.00    +0.099 A 
ATOM      9  N   UNL     1      48.428  83.127  43.071  0.00  0.00    -0.245 NA
ATOM     10  C   UNL     1      51.281  84.970  44.679  0.00  0.00    +0.119 C 
ATOM     11  C   UNL     1      51.701  84.008  45.753  0.00  0.00    +0.047 C 
ATOM     12  N   UNL     1      52.304  84.997  43.657  0.00  0.00    -0.128 NA
ENDROOT
BRANCH  11  13
ATOM     13  C   UNL     1      52.979  84.440  46.344  0.00  0.00    +0.009 A 
ATOM     14  C   UNL     1      53.038  85.666  46.968  0.00  0.00    +0.163 A 
ATOM     15  C   UNL     1      54.205  86.138  47.548  0.00  0.00    +0.167 A 
ATOM     16  C   UNL     1      55.351  85.378  47.515  0.00  0.00    +0.032 A 
ATOM     17  C   UNL     1      55.316  84.155  46.901  0.00  0.00    +0.002 A 
ATOM     18  C   UNL     1      54.139  83.701  46.326  0.00  0.00    -0.002 A 
ATOM     19  F   UNL     1      54.219  87.363  48.157  0.00  0.00    -0.202 F 
ATOM     20  F   UNL     1      51.949  86.487  47.048  0.00  0.00    -0.202 F 
ENDBRANCH  11  13
BRANCH   3  21
ATOM     21  O   UNL     1      49.873  80.985  43.224  0.00  0.00    -0.432 OA
BRANCH  21  22
ATOM     22  C   UNL     1      49.613  80.194  42.111  0.00  0.00    +0.405 C 
ATOM     23  O   UNL     1      50.563  79.467  41.723  0.00  0.00    -0.226 OA
ATOM     24  N   UNL     1      48.364  80.194  41.444  0.00  0.00    -0.246 N 
ATOM     25  C   UNL     1      48.200  80.083  40.013  0.00  0.00    +0.099 C 
ATOM     26  C   UNL     1      47.033  79.191  39.746  0.00  0.00    +0.044 C 
ATOM     27  C   UNL     1      45.734  79.672  40.408  0.00  0.00    +0.093 C 
ATOM     28  C   UNL     1      45.996  80.781  41.305  0.00  0.00    +0.044 C 
ATOM     29  C   UNL     1      47.160  80.314  42.229  0.00  0.00    +0.099 C 
BRANCH  27  30
ATOM     30  N   UNL     1      44.749  79.741  39.404  0.00  0.00    -0.279 N 
ATOM     31  C   UNL     1      43.618  79.048  39.171  0.00  0.00    +0.100 A 
ATOM     32  C   UNL     1      43.009  79.528  38.031  0.00  0.00    +0.183 A 
ATOM     33  N   UNL     1      43.821  80.530  37.599  0.00  0.00    -0.172 NA
ATOM     34  C   UNL     1      44.851  80.660  38.408  0.00  0.00    +0.352 A 
ATOM     35  O   UNL     1      45.763  81.514  38.245  0.00  0.00    -0.244 OA
ATOM     36  N   UNL     1      41.877  78.987  37.614  0.00  0.00    -0.224 NA
ATOM     37  C   UNL     1      41.315  77.981  38.283  0.00  0.00    +0.101 A 
ATOM     38  C   UNL     1      41.876  77.456  39.432  0.00  0.00    +0.022 A 
ATOM     39  C   UNL     1      43.054  78.022  39.862  0.00  0.00    +0.022 A 
ENDBRANCH  27  30
ENDBRANCH  21  22
ENDBRANCH   3  21
TORSDOF 4
