REMARK  Name = Rimexolone
REMARK  2 active torsions:
REMARK  status: ('A' for Active; 'I' for Inactive)
REMARK    1  A    between atoms: C_2  and  C_3
REMARK    2  A    between atoms: C_3  and  C_5
REMARK                            x       y       z     vdW  Elec       q    Type
REMARK                         _______ _______ _______ _____ _____    ______ ____
ROOT
ATOM      1  C   UNL     1      48.667  82.006  41.111  0.00  0.00    +0.052 C 
ATOM      2  C   UNL     1      48.977  81.111  42.288  0.00  0.00    +0.007 C 
ATOM      3  C   UNL     1      47.597  80.640  42.795  0.00  0.00    +0.000 C 
ATOM      4  C   UNL     1      46.895  80.606  41.509  0.00  0.00    +0.001 C 
ATOM      5  C   UNL     1      47.181  81.933  40.905  0.00  0.00    +0.009 C 
ATOM      6  C   UNL     1      46.797  81.851  39.442  0.00  0.00    +0.033 C 
ATOM      7  C   UNL     1      45.404  81.362  39.242  0.00  0.00    +0.153 C 
ATOM      8  C   UNL     1      45.093  80.128  40.045  0.00  0.00    +0.038 C 
ATOM      9  C   UNL     1      45.453  80.243  41.509  0.00  0.00    +0.003 C 
ATOM     10  C   UNL     1      45.207  78.952  42.253  0.00  0.00    +0.004 C 
ATOM     11  C   UNL     1      44.048  78.143  41.828  0.00  0.00    +0.022 C 
ATOM     12  C   UNL     1      43.721  78.244  40.402  0.00  0.00    -0.038 C 
ATOM     13  C   UNL     1      43.454  77.162  39.714  0.00  0.00    +0.034 C 
ATOM     14  C   UNL     1      43.127  77.254  38.272  0.00  0.00    +0.195 C 
ATOM     15  O   UNL     1      42.870  76.198  37.618  0.00  0.00    -0.287 OA
ATOM     16  C   UNL     1      43.113  78.552  37.664  0.00  0.00    +0.038 C 
ATOM     17  C   UNL     1      43.385  79.612  38.391  0.00  0.00    -0.020 C 
ATOM     18  C   UNL     1      43.711  79.606  39.809  0.00  0.00    +0.036 C 
ATOM     19  C   UNL     1      42.640  80.389  40.538  0.00  0.00    +0.009 C 
ATOM     20  O   UNL     1      44.526  82.395  39.408  0.00  0.00    -0.223 OA
ATOM     21  C   UNL     1      46.423  83.080  41.490  0.00  0.00    +0.000 C 
ATOM     22  C   UNL     1      49.747  81.757  43.396  0.00  0.00    +0.000 C 
ATOM     23  C   UNL     1      49.399  81.317  39.923  0.00  0.00    +0.007 C 
ENDROOT
BRANCH   1  24
ATOM     24  C   UNL     1      49.229  83.363  41.205  0.00  0.00    +0.150 C 
ATOM     25  O   UNL     1      50.427  83.562  41.248  0.00  0.00    -0.296 OA
BRANCH  24  27
ATOM     26  C   UNL     1      48.677  85.429  42.504  0.00  0.00    +0.008 C 
ATOM     27  C   UNL     1      48.394  84.598  41.260  0.00  0.00    +0.064 C 
ENDBRANCH  24  27
ENDBRANCH   1  24
TORSDOF 2
