REMARK  Name = Rimiterol
REMARK  2 active torsions:
REMARK  status: ('A' for Active; 'I' for Inactive)
REMARK    1  A    between atoms: C_5  and  C_7
REMARK    2  A    between atoms: C_7  and  C_8
REMARK                            x       y       z     vdW  Elec       q    Type
REMARK                         _______ _______ _______ _____ _____    ______ ____
ROOT
ATOM      1  C   UNL     1      48.267  81.629  42.206  0.00  0.00    +0.190 C 
ATOM      2  O   UNL     1      49.250  80.642  42.242  0.00  0.00    -0.217 OA
ENDROOT
BRANCH   1   3
ATOM      3  C   UNL     1      47.401  81.572  41.034  0.00  0.00    +0.012 A 
ATOM      4  C   UNL     1      46.473  80.571  40.901  0.00  0.00    +0.044 A 
ATOM      5  C   UNL     1      45.645  80.509  39.785  0.00  0.00    +0.234 A 
ATOM      6  C   UNL     1      45.750  81.460  38.793  0.00  0.00    +0.234 A 
ATOM      7  C   UNL     1      46.690  82.468  38.936  0.00  0.00    +0.045 A 
ATOM      8  C   UNL     1      47.500  82.519  40.041  0.00  0.00    +0.002 A 
ATOM      9  O   UNL     1      44.941  81.415  37.684  0.00  0.00    -0.283 OA
ATOM     10  O   UNL     1      44.704  79.516  39.622  0.00  0.00    -0.283 OA
ENDBRANCH   1   3
BRANCH   1  15
ATOM     11  C   UNL     1      50.391  84.121  44.127  0.00  0.00    +0.003 C 
ATOM     12  C   UNL     1      49.577  85.322  43.806  0.00  0.00    +0.019 C 
ATOM     13  C   UNL     1      48.198  85.101  43.319  0.00  0.00    +0.089 C 
ATOM     14  N   UNL     1      47.852  83.720  43.246  0.00  0.00    -0.217 NA
ATOM     15  C   UNL     1      48.855  82.980  42.507  0.00  0.00    +0.107 C 
ATOM     16  C   UNL     1      50.177  82.952  43.210  0.00  0.00    +0.020 C 
ENDBRANCH   1  15
TORSDOF 2
