REMARK  Name = Riociguat
REMARK  5 active torsions:
REMARK  status: ('A' for Active; 'I' for Inactive)
REMARK    1  A    between atoms: N_2  and  C_3
REMARK    2  A    between atoms: C_6  and  C_10
REMARK    3  A    between atoms: N_12  and  C_19
REMARK    4  A    between atoms: C_19  and  C_20
REMARK    5  A    between atoms: C_28  and  O_30
REMARK                            x       y       z     vdW  Elec       q    Type
REMARK                         _______ _______ _______ _____ _____    ______ ____
ROOT
ATOM      1  C   UNL     1      45.946  79.993  41.548  0.00  0.00    +0.140 A 
ATOM      2  N   UNL     1      46.497  80.849  42.410  0.00  0.00    -0.165 NA
ATOM      3  N   UNL     1      46.800  82.007  41.802  0.00  0.00    -0.229 N 
ATOM      4  C   UNL     1      46.453  81.948  40.506  0.00  0.00    +0.161 A 
ATOM      5  C   UNL     1      45.910  80.665  40.347  0.00  0.00    +0.058 A 
ATOM      6  C   UNL     1      45.473  80.347  39.078  0.00  0.00    +0.006 A 
ATOM      7  C   UNL     1      45.559  81.225  38.022  0.00  0.00    +0.021 A 
ATOM      8  C   UNL     1      46.098  82.464  38.230  0.00  0.00    +0.101 A 
ATOM      9  N   UNL     1      46.525  82.784  39.457  0.00  0.00    -0.225 NA
ENDROOT
BRANCH   1  13
ATOM     10  C   UNL     1      44.579  76.076  42.265  0.00  0.00    +0.127 A 
ATOM     11  C   UNL     1      44.979  76.872  43.300  0.00  0.00    +0.188 A 
ATOM     12  N   UNL     1      45.406  78.110  43.022  0.00  0.00    -0.206 NA
ATOM     13  C   UNL     1      45.467  78.626  41.782  0.00  0.00    +0.185 A 
ATOM     14  N   UNL     1      45.070  77.832  40.773  0.00  0.00    -0.206 NA
ATOM     15  C   UNL     1      44.629  76.572  40.985  0.00  0.00    +0.188 A 
ATOM     16  N   UNL     1      44.210  75.738  39.897  0.00  0.00    -0.106 NA
ATOM     17  N   UNL     1      44.943  76.399  44.629  0.00  0.00    -0.106 NA
BRANCH  10  19
ATOM     18  C   UNL     1      45.081  73.746  42.910  0.00  0.00    +0.124 C 
ATOM     19  N   UNL     1      44.121  74.756  42.528  0.00  0.00    -0.218 N 
ATOM     20  C   UNL     1      42.751  74.438  42.417  0.00  0.00    +0.409 C 
ATOM     21  O   UNL     1      42.407  73.417  41.783  0.00  0.00    -0.226 OA
BRANCH  20  22
ATOM     22  O   UNL     1      41.801  75.253  43.006  0.00  0.00    -0.430 OA
ATOM     23  C   UNL     1      40.426  75.170  42.699  0.00  0.00    +0.257 C 
ENDBRANCH  20  22
ENDBRANCH  10  19
ENDBRANCH   1  13
BRANCH   3  24
ATOM     24  C   UNL     1      47.398  83.136  42.474  0.00  0.00    +0.158 C 
BRANCH  24  25
ATOM     25  C   UNL     1      48.855  83.121  42.556  0.00  0.00    +0.030 A 
ATOM     26  C   UNL     1      49.552  82.047  41.987  0.00  0.00    -0.000 A 
ATOM     27  C   UNL     1      50.910  81.948  42.026  0.00  0.00    -0.000 A 
ATOM     28  C   UNL     1      51.649  82.922  42.639  0.00  0.00    +0.002 A 
ATOM     29  C   UNL     1      51.020  83.987  43.209  0.00  0.00    +0.029 A 
ATOM     30  C   UNL     1      49.626  84.078  43.162  0.00  0.00    +0.138 A 
ATOM     31  F   UNL     1      49.083  85.160  43.736  0.00  0.00    -0.204 F 
ENDBRANCH  24  25
ENDBRANCH   3  24
TORSDOF 5
