REMARK  Name = Ripretinib
REMARK  4 active torsions:
REMARK  status: ('A' for Active; 'I' for Inactive)
REMARK    1  A    between atoms: C_2  and  N_3
REMARK    2  A    between atoms: C_11  and  C_14
REMARK    3  A    between atoms: C_16  and  N_22
REMARK    4  A    between atoms: N_25  and  C_26
REMARK                            x       y       z     vdW  Elec       q    Type
REMARK                         _______ _______ _______ _____ _____    ______ ____
ROOT
ATOM      1  C   UNL     1      48.781  82.646  42.390  0.00  0.00    +0.012 A 
ATOM      2  C   UNL     1      49.988  82.003  42.643  0.00  0.00    +0.020 A 
ATOM      3  C   UNL     1      50.965  82.599  43.413  0.00  0.00    +0.102 A 
ATOM      4  C   UNL     1      50.791  83.851  43.962  0.00  0.00    +0.156 A 
ATOM      5  C   UNL     1      49.597  84.507  43.721  0.00  0.00    +0.038 A 
ATOM      6  C   UNL     1      48.630  83.901  42.951  0.00  0.00    +0.037 A 
ATOM      7 BR   UNL     1      46.976  84.791  42.608  0.00  0.00    -0.049 Br
ATOM      8  F   UNL     1      51.793  84.376  44.706  0.00  0.00    -0.203 F 
ENDROOT
BRANCH   1  17
ATOM      9  N   UNL     1      46.246  80.173  41.285  0.00  0.00    -0.295 N 
ATOM     10  C   UNL     1      45.767  80.755  40.174  0.00  0.00    +0.067 A 
ATOM     11  C   UNL     1      44.787  80.175  39.420  0.00  0.00    +0.053 A 
ATOM     12  C   UNL     1      44.289  80.766  38.278  0.00  0.00    +0.149 A 
ATOM     13  N   UNL     1      44.787  81.959  37.886  0.00  0.00    -0.228 NA
ATOM     14  C   UNL     1      45.753  82.552  38.610  0.00  0.00    +0.102 A 
ATOM     15  C   UNL     1      46.263  81.974  39.758  0.00  0.00    +0.035 A 
ATOM     16  C   UNL     1      47.254  82.644  40.446  0.00  0.00    +0.008 A 
ATOM     17  C   UNL     1      47.736  82.038  41.582  0.00  0.00    +0.057 A 
ATOM     18  C   UNL     1      47.211  80.829  41.950  0.00  0.00    +0.261 A 
ATOM     19  O   UNL     1      47.664  80.279  43.001  0.00  0.00    -0.267 OA
ATOM     20  N   UNL     1      43.275  80.093  37.560  0.00  0.00    -0.218 NA
ATOM     21  C   UNL     1      42.717  78.865  38.049  0.00  0.00    +0.137 C 
BRANCH   9  23
ATOM     22  C   UNL     1      44.363  79.076  42.323  0.00  0.00    +0.027 C 
ATOM     23  C   UNL     1      45.768  78.911  41.767  0.00  0.00    +0.109 C 
ENDBRANCH   9  23
ENDBRANCH   1  17
BRANCH   3  24
ATOM     24  N   UNL     1      52.161  81.856  43.611  0.00  0.00    -0.158 NA
ATOM     25  C   UNL     1      52.259  80.458  43.485  0.00  0.00    +0.348 C 
ATOM     26  O   UNL     1      51.561  79.911  42.567  0.00  0.00    -0.248 OA
ATOM     27  N   UNL     1      53.070  79.629  44.299  0.00  0.00    -0.161 NA
BRANCH  27  28
ATOM     28  C   UNL     1      53.150  78.229  44.184  0.00  0.00    +0.075 A 
ATOM     29  C   UNL     1      53.452  77.468  45.288  0.00  0.00    +0.017 A 
ATOM     30  C   UNL     1      53.536  76.072  45.196  0.00  0.00    +0.001 A 
ATOM     31  C   UNL     1      53.313  75.456  43.985  0.00  0.00    +0.000 A 
ATOM     32  C   UNL     1      53.009  76.212  42.873  0.00  0.00    +0.001 A 
ATOM     33  C   UNL     1      52.932  77.590  42.991  0.00  0.00    +0.017 A 
ENDBRANCH  27  28
ENDBRANCH   3  24
TORSDOF 4
