REMARK  Name = Risdiplam
REMARK  2 active torsions:
REMARK  status: ('A' for Active; 'I' for Inactive)
REMARK    1  A    between atoms: C_4  and  C_12
REMARK    2  A    between atoms: C_18  and  N_23
REMARK                            x       y       z     vdW  Elec       q    Type
REMARK                         _______ _______ _______ _____ _____    ______ ____
ROOT
ATOM      1  C   UNL     1      46.724  81.758  40.664  0.00  0.00    +0.107 A 
ATOM      2  C   UNL     1      46.107  82.222  39.526  0.00  0.00    +0.082 A 
ATOM      3  C   UNL     1      45.075  81.454  38.992  0.00  0.00    +0.268 A 
ATOM      4  O   UNL     1      44.527  81.902  37.950  0.00  0.00    -0.267 OA
ATOM      5  N   UNL     1      44.660  80.295  39.528  0.00  0.00    -0.256 N 
ATOM      6  C   UNL     1      43.640  79.592  38.955  0.00  0.00    +0.099 A 
ATOM      7  C   UNL     1      43.181  78.405  39.469  0.00  0.00    +0.066 A 
ATOM      8  C   UNL     1      43.822  77.945  40.630  0.00  0.00    +0.019 A 
ATOM      9  C   UNL     1      44.844  78.680  41.178  0.00  0.00    +0.039 A 
ATOM     10  C   UNL     1      45.281  79.868  40.638  0.00  0.00    +0.150 A 
ATOM     11  N   UNL     1      46.274  80.595  41.162  0.00  0.00    -0.226 NA
ENDROOT
BRANCH   1  15
ATOM     12  C   UNL     1      48.429  85.359  43.709  0.00  0.00    +0.034 C 
ATOM     13  C   UNL     1      48.656  84.216  42.794  0.00  0.00    +0.016 A 
ATOM     14  C   UNL     1      47.605  83.542  42.173  0.00  0.00    +0.021 A 
ATOM     15  C   UNL     1      47.828  82.483  41.327  0.00  0.00    +0.119 A 
ATOM     16  N   UNL     1      49.107  82.121  41.122  0.00  0.00    -0.162 NA
ATOM     17  N   UNL     1      50.150  82.721  41.681  0.00  0.00    -0.210 N 
ATOM     18  C   UNL     1      49.928  83.757  42.508  0.00  0.00    +0.159 A 
ATOM     19  N   UNL     1      51.152  84.174  42.934  0.00  0.00    -0.230 NA
ATOM     20  C   UNL     1      52.109  83.425  42.392  0.00  0.00    +0.080 A 
ATOM     21  C   UNL     1      51.493  82.510  41.603  0.00  0.00    +0.117 A 
ATOM     22  C   UNL     1      53.590  83.531  42.582  0.00  0.00    +0.054 C 
ENDBRANCH   1  15
BRANCH   7  23
ATOM     23  N   UNL     1      42.114  77.649  38.902  0.00  0.00    -0.303 N 
ATOM     24  C   UNL     1      41.803  77.713  37.500  0.00  0.00    +0.110 C 
ATOM     25  C   UNL     1      40.282  77.862  37.379  0.00  0.00    +0.110 C 
ATOM     26  N   UNL     1      39.640  76.732  37.970  0.00  0.00    -0.217 NA
ATOM     27  C   UNL     1      40.484  75.920  38.792  0.00  0.00    +0.078 C 
ATOM     28  C   UNL     1      41.291  76.771  39.722  0.00  0.00    +0.107 C 
ATOM     29  C   UNL     1      41.204  74.739  38.199  0.00  0.00    +0.019 C 
ATOM     30  C   UNL     1      40.067  74.542  39.144  0.00  0.00    +0.019 C 
ENDBRANCH   7  23
TORSDOF 2
