REMARK  Name = Risedronate
REMARK  4 active torsions:
REMARK  status: ('A' for Active; 'I' for Inactive)
REMARK    1  A    between atoms: C_3  and  C_7
REMARK    2  A    between atoms: C_7  and  C_8
REMARK    3  A    between atoms: C_8  and  P_10
REMARK    4  A    between atoms: C_8  and  P_14
REMARK                            x       y       z     vdW  Elec       q    Type
REMARK                         _______ _______ _______ _____ _____    ______ ____
ROOT
ATOM      1  C   UNL     1      49.290  81.561  41.492  0.00  0.00    +0.322 C 
ATOM      2  O   UNL     1      49.472  80.748  40.404  0.00  0.00    -0.200 OA
ENDROOT
BRANCH   1   3
ATOM      3  P   UNL     1      50.724  82.706  41.554  0.00  0.00    +0.434 P 
ATOM      4  O   UNL     1      50.648  83.567  42.768  0.00  0.00    -0.250 OA
ATOM      5  O   UNL     1      52.170  81.838  41.495  0.00  0.00    -0.136 OA
ATOM      6  O   UNL     1      50.613  83.654  40.142  0.00  0.00    -0.136 OA
ENDBRANCH   1   3
BRANCH   1   7
ATOM      7  P   UNL     1      49.343  80.609  43.040  0.00  0.00    +0.434 P 
ATOM      8  O   UNL     1      50.424  79.559  42.998  0.00  0.00    -0.250 OA
ATOM      9  O   UNL     1      47.877  79.800  43.279  0.00  0.00    -0.136 OA
ATOM     10  O   UNL     1      49.599  81.647  44.328  0.00  0.00    -0.136 OA
ENDBRANCH   1   7
BRANCH   1  11
ATOM     11  C   UNL     1      48.068  82.417  41.425  0.00  0.00    +0.083 C 
BRANCH  11  14
ATOM     12  C   UNL     1      45.293  80.406  39.836  0.00  0.00    +0.020 A 
ATOM     13  C   UNL     1      46.271  80.823  40.737  0.00  0.00    -0.001 A 
ATOM     14  C   UNL     1      47.030  81.948  40.502  0.00  0.00    +0.001 A 
ATOM     15  C   UNL     1      46.771  82.632  39.336  0.00  0.00    +0.095 A 
ATOM     16  N   UNL     1      45.809  82.209  38.463  0.00  0.00    -0.243 NA
ATOM     17  C   UNL     1      45.061  81.115  38.679  0.00  0.00    +0.099 A 
ENDBRANCH  11  14
ENDBRANCH   1  11
TORSDOF 4
