REMARK  Name = Risperidone
REMARK  4 active torsions:
REMARK  status: ('A' for Active; 'I' for Inactive)
REMARK    1  A    between atoms: C_3  and  C_13
REMARK    2  A    between atoms: C_13  and  C_14
REMARK    3  A    between atoms: C_14  and  N_15
REMARK    4  A    between atoms: C_18  and  C_21
REMARK                            x       y       z     vdW  Elec       q    Type
REMARK                         _______ _______ _______ _____ _____    ______ ____
ROOT
ATOM      1  N   UNL     1      46.392  80.130  40.157  0.00  0.00    -0.272 NA
ATOM      2  C   UNL     1      46.985  79.943  41.415  0.00  0.00    +0.072 C 
ATOM      3  C   UNL     1      46.831  81.127  42.343  0.00  0.00    +0.023 C 
ATOM      4  C   UNL     1      47.266  82.420  41.659  0.00  0.00    +0.046 C 
ATOM      5  C   UNL     1      46.742  82.566  40.273  0.00  0.00    +0.023 C 
ATOM      6  C   UNL     1      46.658  81.323  39.467  0.00  0.00    +0.072 C 
ENDROOT
BRANCH   4   7
ATOM      7  C   UNL     1      48.752  82.561  41.751  0.00  0.00    +0.100 A 
ATOM      8  N   UNL     1      49.675  81.844  41.085  0.00  0.00    -0.081 NA
ATOM      9  O   UNL     1      50.870  82.237  41.410  0.00  0.00    -0.354 OA
ATOM     10  C   UNL     1      50.840  83.202  42.278  0.00  0.00    +0.179 A 
ATOM     11  C   UNL     1      49.488  83.441  42.524  0.00  0.00    +0.054 A 
ATOM     12  C   UNL     1      49.131  84.414  43.407  0.00  0.00    +0.007 A 
ATOM     13  C   UNL     1      50.110  85.156  44.050  0.00  0.00    +0.030 A 
ATOM     14  C   UNL     1      51.454  84.912  43.800  0.00  0.00    +0.143 A 
ATOM     15  C   UNL     1      51.828  83.929  42.908  0.00  0.00    +0.070 A 
ATOM     16  F   UNL     1      52.394  85.670  44.460  0.00  0.00    -0.204 F 
ENDBRANCH   4   7
BRANCH   1  17
ATOM     17  C   UNL     1      45.432  79.237  39.683  0.00  0.00    +0.077 C 
BRANCH  17  18
ATOM     18  C   UNL     1      44.859  78.268  40.664  0.00  0.00    +0.050 C 
BRANCH  18  21
ATOM     19  C   UNL     1      43.859  75.695  41.637  0.00  0.00    +0.052 C 
ATOM     20  C   UNL     1      43.206  76.411  40.523  0.00  0.00    +0.061 A 
ATOM     21  C   UNL     1      43.650  77.623  40.039  0.00  0.00    +0.049 A 
ATOM     22  C   UNL     1      42.979  78.211  39.000  0.00  0.00    +0.259 A 
ATOM     23  O   UNL     1      43.394  79.324  38.563  0.00  0.00    -0.267 OA
ATOM     24  N   UNL     1      41.898  77.609  38.460  0.00  0.00    -0.284 N 
ATOM     25  C   UNL     1      41.250  78.309  37.362  0.00  0.00    +0.110 C 
ATOM     26  C   UNL     1      40.073  77.583  36.801  0.00  0.00    +0.025 C 
ATOM     27  C   UNL     1      40.283  76.070  36.868  0.00  0.00    +0.010 C 
ATOM     28  C   UNL     1      40.275  75.734  38.360  0.00  0.00    +0.064 C 
ATOM     29  C   UNL     1      41.462  76.424  38.932  0.00  0.00    +0.122 A 
ATOM     30  N   UNL     1      42.124  75.862  39.944  0.00  0.00    -0.237 NA
ENDBRANCH  18  21
ENDBRANCH  17  18
ENDBRANCH   1  17
TORSDOF 4
