REMARK  Name = Ritlecitinib
REMARK  2 active torsions:
REMARK  status: ('A' for Active; 'I' for Inactive)
REMARK    1  A    between atoms: C_5  and  N_12
REMARK    2  A    between atoms: C_8  and  C_10
REMARK                            x       y       z     vdW  Elec       q    Type
REMARK                         _______ _______ _______ _____ _____    ______ ____
ROOT
ATOM      1  C   UNL     1      50.415  84.757  44.389  0.00  0.00    +0.022 C 
ATOM      2  C   UNL     1      49.582  83.814  43.623  0.00  0.00    +0.076 C 
ATOM      3  C   UNL     1      48.570  84.481  42.680  0.00  0.00    +0.022 C 
ATOM      4  C   UNL     1      47.676  83.391  42.172  0.00  0.00    +0.025 C 
ATOM      5  C   UNL     1      47.905  82.025  42.698  0.00  0.00    +0.114 C 
ATOM      6  C   UNL     1      49.358  81.595  42.728  0.00  0.00    +0.115 C 
ATOM      7  N   UNL     1      50.190  82.812  42.836  0.00  0.00    -0.276 N 
ATOM      8  C   UNL     1      51.408  82.844  42.186  0.00  0.00    +0.249 C 
ATOM      9  O   UNL     1      51.932  81.728  41.735  0.00  0.00    -0.270 OA
ENDROOT
BRANCH   5  10
ATOM     10  N   UNL     1      47.174  81.064  41.907  0.00  0.00    -0.220 NA
ATOM     11  C   UNL     1      46.545  81.403  40.674  0.00  0.00    +0.152 A 
ATOM     12  N   UNL     1      46.832  82.504  39.985  0.00  0.00    -0.207 NA
ATOM     13  C   UNL     1      46.237  82.812  38.832  0.00  0.00    +0.201 A 
ATOM     14  N   UNL     1      45.307  81.974  38.345  0.00  0.00    -0.205 NA
ATOM     15  C   UNL     1      44.964  80.847  38.979  0.00  0.00    +0.167 A 
ATOM     16  C   UNL     1      45.584  80.546  40.161  0.00  0.00    +0.070 A 
ATOM     17  C   UNL     1      45.041  79.347  40.583  0.00  0.00    +0.027 A 
ATOM     18  C   UNL     1      44.093  78.925  39.655  0.00  0.00    +0.101 A 
ATOM     19  N   UNL     1      44.077  79.864  38.697  0.00  0.00    -0.225 NA
ENDBRANCH   5  10
BRANCH   8  20
ATOM     20  C   UNL     1      52.262  83.978  41.898  0.00  0.00    +0.058 C 
ATOM     21  C   UNL     1      53.512  84.076  42.308  0.00  0.00    +0.005 C 
ENDBRANCH   8  20
TORSDOF 2
