REMARK  Name = Ritodrine
REMARK  6 active torsions:
REMARK  status: ('A' for Active; 'I' for Inactive)
REMARK    1  A    between atoms: C_2  and  C_3
REMARK    2  A    between atoms: C_2  and  N_12
REMARK    3  A    between atoms: C_3  and  C_4
REMARK    4  A    between atoms: N_12  and  C_13
REMARK    5  A    between atoms: C_13  and  C_14
REMARK    6  A    between atoms: C_14  and  C_15
REMARK                            x       y       z     vdW  Elec       q    Type
REMARK                         _______ _______ _______ _____ _____    ______ ____
ROOT
ATOM      1  C   UNL     1      47.713  82.624  39.481  0.00  0.00    +0.022 C 
ATOM      2  C   UNL     1      47.018  81.840  40.534  0.00  0.00    +0.107 C 
ENDROOT
BRANCH   2   3
ATOM      3  C   UNL     1      48.017  81.404  41.579  0.00  0.00    +0.190 C 
ATOM      4  O   UNL     1      49.016  80.572  41.056  0.00  0.00    -0.217 OA
BRANCH   3   5
ATOM      5  C   UNL     1      48.733  82.525  42.234  0.00  0.00    +0.009 A 
ATOM      6  C   UNL     1      47.969  83.569  42.754  0.00  0.00    +0.001 A 
ATOM      7  C   UNL     1      48.606  84.605  43.371  0.00  0.00    +0.042 A 
ATOM      8  C   UNL     1      49.986  84.687  43.517  0.00  0.00    +0.196 A 
ATOM      9  C   UNL     1      50.734  83.664  43.008  0.00  0.00    +0.042 A 
ATOM     10  C   UNL     1      50.095  82.593  42.372  0.00  0.00    +0.001 A 
ATOM     11  O   UNL     1      50.614  85.755  44.151  0.00  0.00    -0.287 OA
ENDBRANCH   3   5
ENDBRANCH   2   3
BRANCH   2  12
ATOM     12  N   UNL     1      46.218  80.756  40.170  0.00  0.00    -0.216 NA
BRANCH  12  13
ATOM     13  C   UNL     1      45.605  79.912  41.096  0.00  0.00    +0.093 C 
BRANCH  13  14
ATOM     14  C   UNL     1      45.555  78.485  40.654  0.00  0.00    +0.045 C 
BRANCH  14  15
ATOM     15  C   UNL     1      44.267  78.190  39.923  0.00  0.00    -0.021 A 
ATOM     16  C   UNL     1      43.553  77.059  40.234  0.00  0.00    -0.001 A 
ATOM     17  C   UNL     1      42.369  76.719  39.613  0.00  0.00    +0.042 A 
ATOM     18  C   UNL     1      41.883  77.558  38.633  0.00  0.00    +0.196 A 
ATOM     19  C   UNL     1      42.573  78.695  38.298  0.00  0.00    +0.042 A 
ATOM     20  C   UNL     1      43.768  79.016  38.941  0.00  0.00    -0.001 A 
ATOM     21  O   UNL     1      40.695  77.277  37.965  0.00  0.00    -0.287 OA
ENDBRANCH  14  15
ENDBRANCH  13  14
ENDBRANCH  12  13
ENDBRANCH   2  12
TORSDOF 6
