REMARK  Name = Ritonavir
REMARK  18 active torsions:
REMARK  status: ('A' for Active; 'I' for Inactive)
REMARK    1  A    between atoms: C_2  and  C_4
REMARK    2  A    between atoms: C_6  and  C_9
REMARK    3  A    between atoms: C_9  and  N_10
REMARK    4  A    between atoms: N_14  and  C_15
REMARK    5  A    between atoms: C_15  and  C_16
REMARK    6  A    between atoms: C_15  and  C_19
REMARK    7  A    between atoms: N_21  and  C_22
REMARK    8  A    between atoms: C_22  and  C_23
REMARK    9  A    between atoms: C_22  and  C_30
REMARK   10  A    between atoms: C_23  and  C_24
REMARK   11  A    between atoms: C_30  and  C_31
REMARK   12  A    between atoms: C_31  and  C_32
REMARK   13  A    between atoms: C_32  and  C_33
REMARK   14  A    between atoms: C_32  and  N_40
REMARK   15  A    between atoms: C_33  and  C_34
REMARK   16  A    between atoms: C_41  and  O_43
REMARK   17  A    between atoms: O_43  and  C_44
REMARK   18  A    between atoms: C_44  and  C_45
REMARK                            x       y       z     vdW  Elec       q    Type
REMARK                         _______ _______ _______ _____ _____    ______ ____
ROOT
ATOM      1  C   UNL     1      47.969  82.033  39.686  0.00  0.00    +0.102 C 
ENDROOT
BRANCH   1   4
ATOM      2  C   UNL     1      48.561  79.856  40.797  0.00  0.00    +0.261 C 
ATOM      3  O   UNL     1      48.597  79.341  39.621  0.00  0.00    -0.271 OA
ATOM      4  N   UNL     1      47.963  81.122  40.867  0.00  0.00    -0.205 NA
BRANCH   2   5
ATOM      5  C   UNL     1      49.131  79.071  41.903  0.00  0.00    +0.174 C 
BRANCH   5  10
ATOM      6  N   UNL     1      46.644  76.218  42.589  0.00  0.00    -0.255 N 
ATOM      7  C   UNL     1      47.225  75.132  41.845  0.00  0.00    +0.117 C 
ATOM      8  C   UNL     1      47.290  77.477  42.571  0.00  0.00    +0.324 C 
ATOM      9  O   UNL     1      46.779  78.493  43.159  0.00  0.00    -0.251 OA
ATOM     10  N   UNL     1      48.521  77.718  41.922  0.00  0.00    -0.181 NA
BRANCH   6  11
ATOM     11  C   UNL     1      45.426  76.015  43.330  0.00  0.00    +0.141 C 
BRANCH  11  14
ATOM     12  C   UNL     1      43.279  73.026  43.243  0.00  0.00    +0.088 A 
ATOM     13  N   UNL     1      43.719  74.248  43.493  0.00  0.00    -0.245 NA
ATOM     14  C   UNL     1      44.892  74.610  43.065  0.00  0.00    +0.086 A 
ATOM     15  C   UNL     1      45.622  73.681  42.364  0.00  0.00    +0.053 A 
ATOM     16  S   UNL     1      44.567  72.339  42.365  0.00  0.00    -0.071 S 
BRANCH  12  18
ATOM     17  C   UNL     1      41.903  72.274  45.134  0.00  0.00    +0.007 C 
ATOM     18  C   UNL     1      41.962  72.413  43.647  0.00  0.00    +0.047 C 
ATOM     19  C   UNL     1      41.862  71.090  42.915  0.00  0.00    +0.007 C 
ENDBRANCH  12  18
ENDBRANCH  11  14
ENDBRANCH   6  11
ENDBRANCH   5  10
BRANCH   5  20
ATOM     20  C   UNL     1      50.617  78.754  41.704  0.00  0.00    +0.029 C 
ATOM     21  C   UNL     1      51.025  77.838  42.872  0.00  0.00    +0.002 C 
ATOM     22  C   UNL     1      51.506  79.946  41.702  0.00  0.00    +0.002 C 
ENDBRANCH   5  20
ENDBRANCH   2   5
ENDBRANCH   1   4
BRANCH   1  23
ATOM     23  C   UNL     1      47.812  83.385  40.342  0.00  0.00    +0.048 C 
BRANCH  23  24
ATOM     24  C   UNL     1      48.815  83.659  41.397  0.00  0.00    -0.020 A 
ATOM     25  C   UNL     1      48.376  83.850  42.715  0.00  0.00    -0.004 A 
ATOM     26  C   UNL     1      49.208  84.133  43.756  0.00  0.00    -0.000 A 
ATOM     27  C   UNL     1      50.565  84.245  43.536  0.00  0.00    -0.000 A 
ATOM     28  C   UNL     1      51.020  84.061  42.250  0.00  0.00    -0.000 A 
ATOM     29  C   UNL     1      50.150  83.769  41.182  0.00  0.00    -0.004 A 
ENDBRANCH  23  24
ENDBRANCH   1  23
BRANCH   1  30
ATOM     30  C   UNL     1      46.951  81.641  38.691  0.00  0.00    +0.057 C 
BRANCH  30  31
ATOM     31  C   UNL     1      45.575  81.397  39.111  0.00  0.00    +0.174 C 
ATOM     32  O   UNL     1      44.667  82.314  38.482  0.00  0.00    -0.221 OA
BRANCH  31  33
ATOM     33  C   UNL     1      44.871  80.134  39.221  0.00  0.00    +0.133 C 
BRANCH  33  34
ATOM     34  N   UNL     1      43.613  79.996  38.520  0.00  0.00    -0.168 NA
ATOM     35  C   UNL     1      42.980  78.722  38.282  0.00  0.00    +0.421 C 
ATOM     36  O   UNL     1      43.670  77.689  38.399  0.00  0.00    -0.225 OA
BRANCH  35  37
ATOM     37  O   UNL     1      41.667  78.607  37.933  0.00  0.00    -0.428 OA
BRANCH  37  38
ATOM     38  C   UNL     1      41.033  77.599  37.214  0.00  0.00    +0.245 C 
BRANCH  38  39
ATOM     39  C   UNL     1      39.576  77.870  37.108  0.00  0.00    +0.071 A 
ATOM     40  C   UNL     1      38.822  78.896  37.616  0.00  0.00    +0.105 A 
ATOM     41  N   UNL     1      37.550  78.897  37.384  0.00  0.00    -0.235 NA
ATOM     42  C   UNL     1      37.006  77.924  36.672  0.00  0.00    +0.134 A 
ATOM     43  S   UNL     1      38.352  76.944  36.302  0.00  0.00    -0.065 S 
ENDBRANCH  38  39
ENDBRANCH  37  38
ENDBRANCH  35  37
ENDBRANCH  33  34
BRANCH  33  44
ATOM     44  C   UNL     1      44.421  80.014  40.737  0.00  0.00    +0.051 C 
BRANCH  44  45
ATOM     45  C   UNL     1      44.305  78.588  41.105  0.00  0.00    -0.020 A 
ATOM     46  C   UNL     1      44.537  77.572  40.179  0.00  0.00    -0.004 A 
ATOM     47  C   UNL     1      44.402  76.265  40.585  0.00  0.00    -0.000 A 
ATOM     48  C   UNL     1      44.048  75.909  41.866  0.00  0.00    -0.000 A 
ATOM     49  C   UNL     1      43.813  76.906  42.804  0.00  0.00    -0.000 A 
ATOM     50  C   UNL     1      43.949  78.212  42.395  0.00  0.00    -0.004 A 
ENDBRANCH  44  45
ENDBRANCH  33  44
ENDBRANCH  31  33
ENDBRANCH  30  31
ENDBRANCH   1  30
TORSDOF 18
