REMARK  Name = Rivaroxaban
REMARK  5 active torsions:
REMARK  status: ('A' for Active; 'I' for Inactive)
REMARK    1  A    between atoms: N_7  and  C_8
REMARK    2  A    between atoms: C_11  and  N_14
REMARK    3  A    between atoms: C_16  and  C_20
REMARK    4  A    between atoms: C_20  and  N_21
REMARK    5  A    between atoms: C_22  and  C_24
REMARK                            x       y       z     vdW  Elec       q    Type
REMARK                         _______ _______ _______ _____ _____    ______ ____
ROOT
ATOM      1  N   UNL     1      44.479  79.747  39.879  0.00  0.00    -0.221 N 
ATOM      2  C   UNL     1      45.173  79.552  41.131  0.00  0.00    +0.147 C 
ATOM      3  C   UNL     1      46.508  80.240  40.831  0.00  0.00    +0.212 C 
ATOM      4  O   UNL     1      46.077  81.378  40.109  0.00  0.00    -0.434 OA
ATOM      5  C   UNL     1      45.021  80.922  39.298  0.00  0.00    +0.409 C 
ATOM      6  O   UNL     1      44.630  81.472  38.234  0.00  0.00    -0.226 OA
ENDROOT
BRANCH   1  10
ATOM      7  C   UNL     1      41.445  77.132  38.459  0.00  0.00    +0.054 A 
ATOM      8  C   UNL     1      42.205  76.830  39.530  0.00  0.00    +0.016 A 
ATOM      9  C   UNL     1      43.193  77.669  40.001  0.00  0.00    +0.016 A 
ATOM     10  C   UNL     1      43.465  78.888  39.392  0.00  0.00    +0.057 A 
ATOM     11  C   UNL     1      42.688  79.210  38.288  0.00  0.00    +0.016 A 
ATOM     12  C   UNL     1      41.704  78.361  37.828  0.00  0.00    +0.016 A 
BRANCH   7  19
ATOM     13  C   UNL     1      40.418  75.975  36.497  0.00  0.00    +0.130 C 
ATOM     14  C   UNL     1      39.403  74.906  36.305  0.00  0.00    +0.165 C 
ATOM     15  O   UNL     1      39.351  73.979  37.321  0.00  0.00    -0.343 OA
ATOM     16  C   UNL     1      38.925  74.450  38.526  0.00  0.00    +0.228 C 
ATOM     17  C   UNL     1      39.355  75.855  38.693  0.00  0.00    +0.260 C 
ATOM     18  O   UNL     1      38.825  76.667  39.496  0.00  0.00    -0.272 OA
ATOM     19  N   UNL     1      40.420  76.339  37.919  0.00  0.00    -0.254 N 
ENDBRANCH   7  19
ENDBRANCH   1  10
BRANCH   3  20
ATOM     20  C   UNL     1      47.140  80.602  42.136  0.00  0.00    +0.161 C 
BRANCH  20  21
ATOM     21  N   UNL     1      48.551  80.838  41.937  0.00  0.00    -0.197 NA
ATOM     22  C   UNL     1      49.079  82.052  41.456  0.00  0.00    +0.271 C 
ATOM     23  O   UNL     1      49.325  82.168  40.232  0.00  0.00    -0.268 OA
BRANCH  22  24
ATOM     24  C   UNL     1      49.346  83.186  42.374  0.00  0.00    +0.085 A 
ATOM     25  C   UNL     1      48.452  83.810  43.203  0.00  0.00    +0.012 A 
ATOM     26  C   UNL     1      48.913  84.819  43.950  0.00  0.00    +0.019 A 
ATOM     27  C   UNL     1      50.236  85.144  43.825  0.00  0.00    +0.087 A 
ATOM     28  S   UNL     1      50.798  84.029  42.665  0.00  0.00    -0.071 S 
ATOM     29 CL   UNL     1      51.109  86.427  44.684  0.00  0.00    -0.075 Cl
ENDBRANCH  22  24
ENDBRANCH  20  21
ENDBRANCH   3  20
TORSDOF 5
