REMARK  Name = Rizatriptan
REMARK  5 active torsions:
REMARK  status: ('A' for Active; 'I' for Inactive)
REMARK    1  A    between atoms: N_2  and  C_4
REMARK    2  A    between atoms: C_4  and  C_5
REMARK    3  A    between atoms: C_5  and  C_6
REMARK    4  A    between atoms: C_12  and  C_15
REMARK    5  A    between atoms: C_15  and  N_16
REMARK                            x       y       z     vdW  Elec       q    Type
REMARK                         _______ _______ _______ _____ _____    ______ ____
ROOT
ATOM      1  C   UNL     1      46.919  81.455  40.286  0.00  0.00    -0.000 A 
ATOM      2  C   UNL     1      46.649  82.556  39.501  0.00  0.00    +0.095 A 
ATOM      3  N   UNL     1      45.632  82.238  38.663  0.00  0.00    -0.244 NA
ATOM      4  C   UNL     1      45.227  80.982  38.865  0.00  0.00    +0.081 A 
ATOM      5  C   UNL     1      46.029  80.483  39.882  0.00  0.00    +0.015 A 
ATOM      6  C   UNL     1      45.817  79.185  40.292  0.00  0.00    -0.001 A 
ATOM      7  C   UNL     1      44.843  78.396  39.720  0.00  0.00    +0.002 A 
ATOM      8  C   UNL     1      44.060  78.908  38.715  0.00  0.00    -0.001 A 
ATOM      9  C   UNL     1      44.247  80.199  38.284  0.00  0.00    +0.019 A 
ENDROOT
BRANCH   1  10
ATOM     10  C   UNL     1      47.924  81.289  41.342  0.00  0.00    +0.045 C 
BRANCH  10  11
ATOM     11  C   UNL     1      49.116  82.168  41.151  0.00  0.00    +0.077 C 
BRANCH  11  13
ATOM     12  C   UNL     1      49.644  81.981  43.495  0.00  0.00    +0.090 C 
ATOM     13  N   UNL     1      50.113  81.955  42.147  0.00  0.00    -0.270 NA
ATOM     14  C   UNL     1      51.298  82.766  41.958  0.00  0.00    +0.090 C 
ENDBRANCH  11  13
ENDBRANCH  10  11
ENDBRANCH   1  10
BRANCH   7  15
ATOM     15  C   UNL     1      44.601  76.992  40.150  0.00  0.00    +0.156 C 
BRANCH  15  16
ATOM     16  N   UNL     1      44.683  76.938  41.597  0.00  0.00    -0.226 N 
ATOM     17  C   UNL     1      43.703  76.632  42.466  0.00  0.00    +0.198 A 
ATOM     18  N   UNL     1      44.205  76.701  43.712  0.00  0.00    -0.201 NA
ATOM     19  C   UNL     1      45.499  77.050  43.638  0.00  0.00    +0.221 A 
ATOM     20  N   UNL     1      45.761  77.187  42.330  0.00  0.00    -0.145 NA
ENDBRANCH  15  16
ENDBRANCH   7  15
TORSDOF 5
