REMARK  Name = Rofecoxib
REMARK  3 active torsions:
REMARK  status: ('A' for Active; 'I' for Inactive)
REMARK    1  A    between atoms: S_2  and  C_5
REMARK    2  A    between atoms: C_8  and  C_11
REMARK    3  A    between atoms: C_12  and  C_17
REMARK                            x       y       z     vdW  Elec       q    Type
REMARK                         _______ _______ _______ _____ _____    ______ ____
ROOT
ATOM      1  C   UNL     1      45.266  79.847  39.748  0.00  0.00    +0.028 C 
ATOM      2  C   UNL     1      45.996  80.925  39.718  0.00  0.00    +0.075 C 
ATOM      3  C   UNL     1      45.560  81.803  38.637  0.00  0.00    +0.341 C 
ATOM      4  O   UNL     1      46.044  82.932  38.318  0.00  0.00    -0.245 OA
ATOM      5  O   UNL     1      44.512  81.198  38.001  0.00  0.00    -0.440 OA
ATOM      6  C   UNL     1      44.263  79.979  38.630  0.00  0.00    +0.236 C 
ENDROOT
BRANCH   1  10
ATOM      7  C   UNL     1      45.333  76.407  42.283  0.00  0.00    +0.106 A 
ATOM      8  C   UNL     1      44.232  77.254  42.251  0.00  0.00    +0.018 A 
ATOM      9  C   UNL     1      44.214  78.362  41.429  0.00  0.00    +0.001 A 
ATOM     10  C   UNL     1      45.282  78.672  40.608  0.00  0.00    -0.000 A 
ATOM     11  C   UNL     1      46.373  77.811  40.657  0.00  0.00    +0.001 A 
ATOM     12  C   UNL     1      46.408  76.701  41.472  0.00  0.00    +0.018 A 
BRANCH   7  14
ATOM     13  C   UNL     1      46.937  74.123  43.110  0.00  0.00    +0.182 C 
ATOM     14  S   UNL     1      45.410  75.006  43.303  0.00  0.00    +0.010 S 
ATOM     15  O   UNL     1      45.171  75.407  44.734  0.00  0.00    -0.169 OA
ATOM     16  O   UNL     1      44.283  74.066  42.899  0.00  0.00    -0.169 OA
ENDBRANCH   7  14
ENDBRANCH   1  10
BRANCH   2  17
ATOM     17  C   UNL     1      47.079  81.237  40.642  0.00  0.00    +0.006 A 
ATOM     18  C   UNL     1      47.021  81.081  41.996  0.00  0.00    +0.000 A 
ATOM     19  C   UNL     1      48.123  81.404  42.781  0.00  0.00    +0.000 A 
ATOM     20  C   UNL     1      49.290  81.883  42.239  0.00  0.00    +0.000 A 
ATOM     21  C   UNL     1      49.362  82.047  40.852  0.00  0.00    +0.000 A 
ATOM     22  C   UNL     1      48.263  81.723  40.088  0.00  0.00    +0.000 A 
ENDBRANCH   2  17
TORSDOF 3
