REMARK  Name = Roflumilast
REMARK  7 active torsions:
REMARK  status: ('A' for Active; 'I' for Inactive)
REMARK    1  A    between atoms: C_3  and  C_4
REMARK    2  A    between atoms: C_4  and  O_5
REMARK    3  A    between atoms: O_5  and  C_6
REMARK    4  A    between atoms: C_7  and  O_23
REMARK    5  A    between atoms: C_10  and  C_12
REMARK    6  A    between atoms: N_14  and  C_15
REMARK    7  A    between atoms: O_23  and  C_24
REMARK                            x       y       z     vdW  Elec       q    Type
REMARK                         _______ _______ _______ _____ _____    ______ ____
ROOT
ATOM      1  C   UNL     1      49.383  81.990  43.964  0.00  0.00    +0.173 A 
ATOM      2  C   UNL     1      49.038  83.374  44.081  0.00  0.00    +0.178 A 
ATOM      3  C   UNL     1      48.004  83.886  43.374  0.00  0.00    +0.040 A 
ATOM      4  C   UNL     1      47.239  83.081  42.507  0.00  0.00    +0.008 A 
ATOM      5  C   UNL     1      47.532  81.753  42.364  0.00  0.00    +0.059 A 
ATOM      6  C   UNL     1      48.593  81.269  43.101  0.00  0.00    +0.045 A 
ENDROOT
BRANCH   5   7
ATOM      7  C   UNL     1      46.763  80.877  41.473  0.00  0.00    +0.269 C 
ATOM      8  O   UNL     1      47.241  79.785  41.057  0.00  0.00    -0.268 OA
ATOM      9  N   UNL     1      45.458  81.180  41.020  0.00  0.00    -0.174 NA
BRANCH   9  10
ATOM     10  C   UNL     1      44.771  80.395  40.060  0.00  0.00    +0.098 A 
ATOM     11  C   UNL     1      44.792  80.774  38.743  0.00  0.00    +0.093 A 
ATOM     12  C   UNL     1      44.103  79.973  37.836  0.00  0.00    +0.112 A 
ATOM     13  N   UNL     1      43.429  78.855  38.212  0.00  0.00    -0.240 NA
ATOM     14  C   UNL     1      43.413  78.491  39.496  0.00  0.00    +0.112 A 
ATOM     15  C   UNL     1      44.081  79.257  40.424  0.00  0.00    +0.093 A 
ATOM     16 CL   UNL     1      44.093  78.824  42.127  0.00  0.00    -0.079 Cl
ATOM     17 CL   UNL     1      45.634  82.199  38.166  0.00  0.00    -0.079 Cl
ENDBRANCH   9  10
ENDBRANCH   5   7
BRANCH   1  18
ATOM     18  O   UNL     1      50.407  81.546  44.679  0.00  0.00    -0.472 OA
BRANCH  18  19
ATOM     19  C   UNL     1      51.122  80.621  45.254  0.00  0.00    +0.205 C 
BRANCH  19  22
ATOM     20  C   UNL     1      52.359  80.377  47.506  0.00  0.00    +0.004 C 
ATOM     21  C   UNL     1      53.253  79.820  46.485  0.00  0.00    +0.004 C 
ATOM     22  C   UNL     1      52.312  80.906  46.105  0.00  0.00    +0.044 C 
ENDBRANCH  19  22
ENDBRANCH  18  19
ENDBRANCH   1  18
BRANCH   2  23
ATOM     23  O   UNL     1      49.798  84.121  44.927  0.00  0.00    -0.421 OA
BRANCH  23  24
ATOM     24  C   UNL     1      50.676  85.133  44.614  0.00  0.00    +0.509 C 
ATOM     25  F   UNL     1      51.278  84.810  43.399  0.00  0.00    -0.155 F 
ATOM     26  F   UNL     1      50.014  86.334  44.369  0.00  0.00    -0.155 F 
ENDBRANCH  23  24
ENDBRANCH   2  23
TORSDOF 7
