REMARK  Name = Rolitetracycline
REMARK  4 active torsions:
REMARK  status: ('A' for Active; 'I' for Inactive)
REMARK    1  A    between atoms: C_6  and  N_35
REMARK    2  A    between atoms: C_9  and  C_26
REMARK    3  A    between atoms: N_28  and  C_29
REMARK    4  A    between atoms: C_29  and  N_30
REMARK                            x       y       z     vdW  Elec       q    Type
REMARK                         _______ _______ _______ _____ _____    ______ ____
ROOT
ATOM      1  C   UNL     1      48.481  80.654  43.504  0.00  0.00    +0.038 C 
ATOM      2  C   UNL     1      47.773  81.870  42.894  0.00  0.00    +0.149 C 
ATOM      3  C   UNL     1      46.854  81.480  41.822  0.00  0.00    +0.060 C 
ATOM      4  C   UNL     1      46.473  80.001  41.988  0.00  0.00    +0.012 C 
ATOM      5  C   UNL     1      45.393  79.632  41.048  0.00  0.00    +0.065 C 
ATOM      6  C   UNL     1      45.015  78.178  41.090  0.00  0.00    +0.124 C 
ATOM      7  C   UNL     1      43.990  77.869  40.054  0.00  0.00    +0.195 C 
ATOM      8  O   UNL     1      43.527  76.728  39.961  0.00  0.00    -0.290 OA
ATOM      9  C   UNL     1      43.546  78.965  39.148  0.00  0.00    +0.128 C 
ATOM     10  C   UNL     1      44.335  79.969  38.920  0.00  0.00    +0.215 C 
ATOM     11  C   UNL     1      45.683  79.957  39.609  0.00  0.00    +0.237 C 
ATOM     12  C   UNL     1      46.440  81.176  39.371  0.00  0.00    +0.207 C 
ATOM     13  O   UNL     1      46.387  81.739  38.254  0.00  0.00    -0.289 OA
ATOM     14  C   UNL     1      47.263  81.749  40.428  0.00  0.00    +0.057 C 
ATOM     15  C   UNL     1      48.341  82.465  40.148  0.00  0.00    +0.197 C 
ATOM     16  C   UNL     1      49.173  83.008  41.194  0.00  0.00    +0.076 A 
ATOM     17  C   UNL     1      48.877  82.788  42.509  0.00  0.00    +0.012 A 
ATOM     18  C   UNL     1      49.652  83.376  43.519  0.00  0.00    -0.002 A 
ATOM     19  C   UNL     1      50.721  84.179  43.210  0.00  0.00    +0.003 A 
ATOM     20  C   UNL     1      51.015  84.394  41.880  0.00  0.00    +0.042 A 
ATOM     21  C   UNL     1      50.253  83.818  40.886  0.00  0.00    +0.198 A 
ATOM     22  O   UNL     1      50.525  84.015  39.534  0.00  0.00    -0.286 OA
ATOM     23  O   UNL     1      48.664  82.690  38.824  0.00  0.00    -0.287 OA
ATOM     24  O   UNL     1      46.383  78.901  38.979  0.00  0.00    -0.210 OA
ATOM     25  O   UNL     1      44.008  81.013  38.105  0.00  0.00    -0.288 OA
ATOM     26  O   UNL     1      47.018  82.477  43.939  0.00  0.00    -0.221 OA
ENDROOT
BRANCH   9  27
ATOM     27  C   UNL     1      42.230  78.857  38.548  0.00  0.00    +0.272 C 
ATOM     28  O   UNL     1      41.310  79.709  38.902  0.00  0.00    -0.268 OA
ATOM     29  N   UNL     1      41.793  77.921  37.598  0.00  0.00    -0.183 NA
BRANCH  29  30
ATOM     30  C   UNL     1      41.124  76.675  38.007  0.00  0.00    +0.191 C 
BRANCH  30  31
ATOM     31  N   UNL     1      39.692  76.768  37.739  0.00  0.00    -0.254 NA
ATOM     32  C   UNL     1      39.539  76.973  36.321  0.00  0.00    +0.074 C 
ATOM     33  C   UNL     1      39.270  75.638  35.687  0.00  0.00    +0.019 C 
ATOM     34  C   UNL     1      38.646  74.842  36.813  0.00  0.00    +0.019 C 
ATOM     35  C   UNL     1      39.093  75.506  38.084  0.00  0.00    +0.074 C 
ENDBRANCH  30  31
ENDBRANCH  29  30
ENDBRANCH   9  27
BRANCH   6  36
ATOM     36  N   UNL     1      46.066  77.243  41.126  0.00  0.00    -0.265 NA
ATOM     37  C   UNL     1      46.908  77.168  42.259  0.00  0.00    +0.090 C 
ATOM     38  C   UNL     1      45.889  75.998  40.471  0.00  0.00    +0.090 C 
ENDBRANCH   6  36
TORSDOF 4
