REMARK  Name = Romiplostim
REMARK  1 active torsions:
REMARK  status: ('A' for Active; 'I' for Inactive)
REMARK    1  A    between atoms: C_5  and  C_7
REMARK                            x       y       z     vdW  Elec       q    Type
REMARK                         _______ _______ _______ _____ _____    ______ ____
ROOT
ATOM      1  C   UNL     1      45.334  79.638  40.229  0.00  0.00    +0.023 C 
ATOM      2  C   UNL     1      45.949  80.728  39.901  0.00  0.00    +0.058 C 
ATOM      3  C   UNL     1      47.121  81.402  40.480  0.00  0.00    +0.020 A 
ATOM      4  C   UNL     1      47.881  81.111  41.587  0.00  0.00    +0.001 A 
ATOM      5  C   UNL     1      48.956  81.926  41.947  0.00  0.00    +0.000 A 
ATOM      6  C   UNL     1      49.230  83.013  41.179  0.00  0.00    +0.001 A 
ATOM      7  C   UNL     1      48.486  83.334  40.063  0.00  0.00    +0.017 A 
ATOM      8  C   UNL     1      47.428  82.512  39.726  0.00  0.00    +0.074 A 
ATOM      9  N   UNL     1      46.501  82.646  38.627  0.00  0.00    -0.175 NA
ATOM     10  C   UNL     1      45.601  81.574  38.723  0.00  0.00    +0.269 C 
ATOM     11  O   UNL     1      44.656  81.368  37.936  0.00  0.00    -0.268 OA
ENDROOT
BRANCH   1  16
ATOM     12  C   UNL     1      41.469  78.442  37.211  0.00  0.00    +0.052 C 
ATOM     13  C   UNL     1      42.525  78.372  38.284  0.00  0.00    +0.059 A 
ATOM     14  C   UNL     1      42.738  77.366  39.191  0.00  0.00    +0.012 A 
ATOM     15  C   UNL     1      43.795  77.676  39.999  0.00  0.00    -0.003 A 
ATOM     16  C   UNL     1      44.257  78.932  39.573  0.00  0.00    +0.077 A 
ATOM     17  N   UNL     1      43.460  79.291  38.551  0.00  0.00    -0.250 NA
ATOM     18  C   UNL     1      44.399  76.891  41.128  0.00  0.00    +0.033 C 
ENDBRANCH   1  16
TORSDOF 1
