REMARK  Name = Romidepsin
REMARK  2 active torsions:
REMARK  status: ('A' for Active; 'I' for Inactive)
REMARK    1  A    between atoms: C_7  and  C_34
REMARK    2  A    between atoms: C_16  and  C_31
REMARK                            x       y       z     vdW  Elec       q    Type
REMARK                         _______ _______ _______ _____ _____    ______ ____
ROOT
ATOM      1  C   UNL     1      48.496  83.698  40.316  0.00  0.00    +0.032 C 
ATOM      2  C   UNL     1      48.743  82.299  40.727  0.00  0.00    -0.005 C 
ATOM      3  C   UNL     1      47.805  81.333  40.598  0.00  0.00    +0.124 C 
ATOM      4  C   UNL     1      47.771  80.339  41.676  0.00  0.00    +0.280 C 
ATOM      5  O   UNL     1      47.849  80.851  42.860  0.00  0.00    -0.267 OA
ATOM      6  N   UNL     1      47.666  78.930  41.538  0.00  0.00    -0.191 NA
ATOM      7  C   UNL     1      48.202  78.116  40.504  0.00  0.00    +0.194 C 
ATOM      8  C   UNL     1      48.174  76.663  40.729  0.00  0.00    +0.337 C 
ATOM      9  O   UNL     1      48.715  75.962  39.806  0.00  0.00    -0.248 OA
ATOM     10  O   UNL     1      47.635  76.091  41.803  0.00  0.00    -0.446 OA
ATOM     11  C   UNL     1      46.285  75.883  42.206  0.00  0.00    +0.200 C 
ATOM     12  C   UNL     1      45.312  76.526  41.294  0.00  0.00    +0.135 C 
ATOM     13  C   UNL     1      44.431  75.596  40.538  0.00  0.00    +0.246 C 
ATOM     14  O   UNL     1      44.414  74.374  40.810  0.00  0.00    -0.273 OA
ATOM     15  N   UNL     1      43.608  76.140  39.495  0.00  0.00    -0.198 NA
ATOM     16  C   UNL     1      43.884  77.387  38.821  0.00  0.00    +0.173 C 
ATOM     17  C   UNL     1      43.018  78.497  39.334  0.00  0.00    +0.262 C 
ATOM     18  O   UNL     1      41.796  78.230  39.619  0.00  0.00    -0.271 OA
ATOM     19  N   UNL     1      43.494  79.822  39.514  0.00  0.00    -0.195 NA
ATOM     20  C   UNL     1      44.760  80.151  40.180  0.00  0.00    +0.185 C 
ATOM     21  C   UNL     1      44.432  80.609  41.581  0.00  0.00    +0.100 C 
ATOM     22  S   UNL     1      42.674  80.441  41.974  0.00  0.00    -0.080 S 
ATOM     23  S   UNL     1      42.195  78.618  42.909  0.00  0.00    -0.082 S 
ATOM     24  C   UNL     1      43.392  78.073  44.126  0.00  0.00    +0.073 C 
ATOM     25  C   UNL     1      43.675  76.575  44.019  0.00  0.00    +0.038 C 
ATOM     26  C   UNL     1      45.100  76.407  44.383  0.00  0.00    -0.026 C 
ATOM     27  C   UNL     1      46.127  76.132  43.649  0.00  0.00    +0.013 C 
ATOM     28  C   UNL     1      45.542  81.174  39.408  0.00  0.00    +0.266 C 
ATOM     29  O   UNL     1      44.779  81.900  38.663  0.00  0.00    -0.271 OA
ATOM     30  N   UNL     1      46.937  81.339  39.473  0.00  0.00    -0.173 NA
ENDROOT
BRANCH  16  31
ATOM     31  C   UNL     1      43.506  77.177  37.359  0.00  0.00    +0.029 C 
ATOM     32  C   UNL     1      42.306  77.960  36.948  0.00  0.00    +0.002 C 
ATOM     33  C   UNL     1      43.359  75.724  37.025  0.00  0.00    +0.002 C 
ENDBRANCH  16  31
BRANCH   7  34
ATOM     34  C   UNL     1      49.630  78.589  40.265  0.00  0.00    +0.031 C 
ATOM     35  C   UNL     1      50.636  77.500  40.399  0.00  0.00    +0.002 C 
ATOM     36  C   UNL     1      49.991  79.714  41.215  0.00  0.00    +0.002 C 
ENDBRANCH   7  34
TORSDOF 2
