REMARK  Name = Romurtide
REMARK  35 active torsions:
REMARK  status: ('A' for Active; 'I' for Inactive)
REMARK    1  A    between atoms: C_2  and  C_3
REMARK    2  A    between atoms: C_3  and  C_4
REMARK    3  A    between atoms: C_4  and  C_5
REMARK    4  A    between atoms: C_5  and  C_6
REMARK    5  A    between atoms: C_6  and  C_7
REMARK    6  A    between atoms: C_7  and  C_8
REMARK    7  A    between atoms: C_8  and  C_9
REMARK    8  A    between atoms: C_9  and  C_10
REMARK    9  A    between atoms: C_10  and  C_11
REMARK   10  A    between atoms: C_11  and  C_12
REMARK   11  A    between atoms: C_12  and  C_13
REMARK   12  A    between atoms: C_13  and  C_14
REMARK   13  A    between atoms: C_14  and  C_15
REMARK   14  A    between atoms: C_15  and  C_16
REMARK   15  A    between atoms: C_16  and  C_17
REMARK   16  A    between atoms: C_17  and  C_18
REMARK   17  A    between atoms: N_20  and  C_21
REMARK   18  A    between atoms: C_21  and  C_22
REMARK   19  A    between atoms: C_22  and  C_23
REMARK   20  A    between atoms: C_23  and  C_24
REMARK   21  A    between atoms: C_24  and  C_25
REMARK   22  A    between atoms: C_25  and  C_26
REMARK   23  A    between atoms: C_25  and  N_29
REMARK   24  A    between atoms: C_30  and  C_32
REMARK   25  A    between atoms: C_32  and  C_33
REMARK   26  A    between atoms: C_33  and  C_34
REMARK   27  A    between atoms: C_34  and  C_35
REMARK   28  A    between atoms: C_34  and  N_38
REMARK   29  A    between atoms: C_39  and  C_41
REMARK   30  A    between atoms: C_41  and  N_43
REMARK   31  A    between atoms: C_44  and  C_46
REMARK   32  A    between atoms: C_46  and  O_48
REMARK   33  A    between atoms: O_48  and  C_49
REMARK   34  A    between atoms: C_50  and  N_59
REMARK   35  A    between atoms: C_53  and  C_56
REMARK                            x       y       z     vdW  Elec       q    Type
REMARK                         _______ _______ _______ _____ _____    ______ ____
ROOT
ATOM      1  N   UNK A   1      43.836  79.661  39.264  0.00  0.00    -0.196 NA
ATOM      2  C   UNK A   0      42.927  78.658  38.743  0.00  0.00    +0.242 C 
ATOM      3  O   UNK A   0      43.306  77.476  38.850  0.00  0.00    -0.273 OA
ENDROOT
BRANCH   2   4
ATOM      4  C   UNK A   0      41.672  79.076  38.154  0.00  0.00    +0.089 C 
BRANCH   4   5
ATOM      5  C   UNK A   0      40.953  78.287  37.162  0.00  0.00    +0.041 C 
BRANCH   5   6
ATOM      6  C   UNK A   0      39.707  77.547  37.563  0.00  0.00    +0.175 C 
BRANCH   6   7
ATOM      7  C   UNK A   0      38.526  78.382  37.755  0.00  0.00    +0.281 C 
ATOM      8  O   UNK A   0      37.832  78.817  36.787  0.00  0.00    -0.270 OA
ATOM      9  N   UNK A   0      38.066  78.761  39.072  0.00  0.00    -0.086 NA
ENDBRANCH   6   7
BRANCH   6  10
ATOM     10  N   UNK A   0      39.403  76.552  36.503  0.00  0.00    -0.196 NA
ATOM     11  C   UNK A   0      38.560  75.444  36.720  0.00  0.00    +0.262 C 
ATOM     12  O   UNK A   0      38.059  75.222  37.841  0.00  0.00    -0.271 OA
BRANCH  11  13
ATOM     13  C   UNK A   0      38.268  74.534  35.583  0.00  0.00    +0.173 C 
ATOM     14  C   UNK A   0      37.623  75.332  34.439  0.00  0.00    +0.033 C 
BRANCH  13  15
ATOM     15  N   UNK A   0      37.419  73.417  35.942  0.00  0.00    -0.196 NA
ATOM     16  C   UNK A   0      37.917  72.375  36.790  0.00  0.00    +0.269 C 
ATOM     17  O   UNK A   0      39.141  72.463  37.092  0.00  0.00    -0.271 OA
BRANCH  16  18
ATOM     18  C   UNK A   0      37.149  71.261  37.314  0.00  0.00    +0.193 C 
ATOM     19  C   UNK A   0      36.924  71.375  38.829  0.00  0.00    +0.042 C 
BRANCH  18  20
ATOM     20  O   UNK A   0      35.929  71.001  36.757  0.00  0.00    -0.345 OA
BRANCH  20  21
ATOM     21  C   UNK A   0      35.931  69.878  35.935  0.00  0.00    +0.173 C 
ATOM     22  C   UNK A   0      34.806  69.954  34.959  0.00  0.00    +0.184 C 
ATOM     23  C   UNK A   0      34.999  68.806  33.960  0.00  0.00    +0.292 C 
ATOM     24  O   UNK A   0      35.520  67.688  34.550  0.00  0.00    -0.324 OA
ATOM     25  C   UNK A   0      35.211  67.503  35.881  0.00  0.00    +0.183 C 
ATOM     26  C   UNK A   0      35.653  68.617  36.774  0.00  0.00    +0.210 C 
ATOM     27  O   UNK A   0      36.756  68.316  37.564  0.00  0.00    -0.218 OA
ATOM     28  O   UNK A   0      35.894  69.263  32.995  0.00  0.00    -0.188 OA
BRANCH  22  29
ATOM     29  N   UNK A   0      34.693  71.185  34.231  0.00  0.00    -0.199 NA
ATOM     30  C   UNK A   0      35.651  71.487  33.219  0.00  0.00    +0.242 C 
ATOM     31  O   UNK A   0      35.781  70.693  32.253  0.00  0.00    -0.273 OA
ATOM     32  C   UNK A   0      36.518  72.695  33.234  0.00  0.00    +0.096 C 
ENDBRANCH  22  29
BRANCH  25  33
ATOM     33  C   UNK A   0      35.977  66.246  36.324  0.00  0.00    +0.214 C 
ATOM     34  O   UNK A   0      35.385  65.087  35.837  0.00  0.00    -0.218 OA
ENDBRANCH  25  33
ENDBRANCH  20  21
ENDBRANCH  18  20
ENDBRANCH  16  18
ENDBRANCH  13  15
ENDBRANCH  11  13
ENDBRANCH   6  10
ENDBRANCH   5   6
ENDBRANCH   4   5
ENDBRANCH   2   4
BRANCH   1  35
ATOM     35  C   UNK A   1      45.094  79.205  39.916  0.00  0.00    +0.198 C 
BRANCH  35  36
ATOM     36  C   UNK A   1      46.127  80.094  39.426  0.00  0.00    +0.384 C 
ATOM     37  O   UNK A   1      45.974  81.371  39.396  0.00  0.00    -0.244 OA
ATOM     38  O   UNK A   1      47.363  79.675  38.938  0.00  0.00    -0.244 OA
ENDBRANCH  35  36
BRANCH  35  39
ATOM     39  C   UNK A   1      44.797  79.173  41.401  0.00  0.00    +0.033 C 
BRANCH  39  40
ATOM     40  C   UNK A   1      45.665  79.920  42.285  0.00  0.00    +0.004 C 
BRANCH  40  41
ATOM     41  C   UNK A   1      46.556  81.003  41.853  0.00  0.00    +0.024 C 
BRANCH  41  42
ATOM     42  C   UNK A   1      46.439  82.272  42.604  0.00  0.00    +0.115 C 
BRANCH  42  45
ATOM     43  C   UNK A   1      47.181  84.667  42.997  0.00  0.00    +0.241 C 
ATOM     44  O   UNK A   1      46.120  85.236  42.799  0.00  0.00    -0.273 OA
ATOM     45  N   UNK A   1      47.311  83.339  42.423  0.00  0.00    -0.205 NA
BRANCH  43  46
ATOM     46  C   UNK A   1      48.310  85.162  43.742  0.00  0.00    +0.087 C 
BRANCH  46  47
ATOM     47  C   UNK A   1      49.611  84.512  43.697  0.00  0.00    +0.010 C 
BRANCH  47  48
ATOM     48  C   UNK A   1      50.818  84.954  44.365  0.00  0.00    +0.001 C 
BRANCH  48  49
ATOM     49  C   UNK A   1      51.105  84.725  45.791  0.00  0.00    +0.000 C 
BRANCH  49  50
ATOM     50  C   UNK A   1      52.365  83.987  46.105  0.00  0.00    +0.000 C 
BRANCH  50  51
ATOM     51  C   UNK A   1      52.912  84.326  47.498  0.00  0.00    +0.000 C 
BRANCH  51  52
ATOM     52  C   UNK A   1      52.648  83.151  48.396  0.00  0.00    +0.000 C 
BRANCH  52  53
ATOM     53  C   UNK A   1      53.736  82.138  48.331  0.00  0.00    +0.000 C 
BRANCH  53  54
ATOM     54  C   UNK A   1      53.545  81.019  49.331  0.00  0.00    +0.000 C 
BRANCH  54  55
ATOM     55  C   UNK A   1      52.305  80.251  48.913  0.00  0.00    +0.000 C 
BRANCH  55  56
ATOM     56  C   UNK A   1      52.562  78.803  48.607  0.00  0.00    +0.000 C 
BRANCH  56  57
ATOM     57  C   UNK A   1      53.217  78.147  49.804  0.00  0.00    +0.000 C 
BRANCH  57  58
ATOM     58  C   UNK A   1      52.895  76.672  49.872  0.00  0.00    +0.000 C 
BRANCH  58  59
ATOM     59  C   UNK A   1      53.588  76.007  51.045  0.00  0.00    +0.000 C 
BRANCH  59  60
ATOM     60  C   UNK A   1      53.177  74.586  51.247  0.00  0.00    +0.000 C 
BRANCH  60  62
ATOM     61  C   UNK A   1      53.621  72.486  52.544  0.00  0.00    +0.000 C 
ATOM     62  C   UNK A   1      54.029  73.908  52.301  0.00  0.00    +0.000 C 
ENDBRANCH  60  62
ENDBRANCH  59  60
ENDBRANCH  58  59
ENDBRANCH  57  58
ENDBRANCH  56  57
ENDBRANCH  55  56
ENDBRANCH  54  55
ENDBRANCH  53  54
ENDBRANCH  52  53
ENDBRANCH  51  52
ENDBRANCH  50  51
ENDBRANCH  49  50
ENDBRANCH  48  49
ENDBRANCH  47  48
ENDBRANCH  46  47
ENDBRANCH  43  46
ENDBRANCH  42  45
ENDBRANCH  41  42
ENDBRANCH  40  41
ENDBRANCH  39  40
ENDBRANCH  35  39
ENDBRANCH   1  35
TORSDOF 35
