REMARK  Name = Ropeginterferon_alfa-2b
REMARK  18 active torsions:
REMARK  status: ('A' for Active; 'I' for Inactive)
REMARK    1  A    between atoms: O_2  and  C_3
REMARK    2  A    between atoms: C_3  and  C_4
REMARK    3  A    between atoms: C_4  and  O_5
REMARK    4  A    between atoms: O_5  and  C_6
REMARK    5  A    between atoms: N_8  and  C_9
REMARK    6  A    between atoms: C_9  and  C_10
REMARK    7  A    between atoms: C_10  and  C_11
REMARK    8  A    between atoms: C_11  and  C_12
REMARK    9  A    between atoms: C_12  and  C_13
REMARK   10  A    between atoms: C_13  and  C_14
REMARK   11  A    between atoms: C_13  and  N_24
REMARK   12  A    between atoms: C_14  and  C_15
REMARK   13  A    between atoms: C_15  and  N_16
REMARK   14  A    between atoms: C_20  and  C_21
REMARK   15  A    between atoms: C_25  and  O_27
REMARK   16  A    between atoms: O_27  and  C_28
REMARK   17  A    between atoms: C_28  and  C_29
REMARK   18  A    between atoms: C_29  and  O_30
REMARK                            x       y       z     vdW  Elec       q    Type
REMARK                         _______ _______ _______ _____ _____    ______ ____
ROOT
ATOM      1  C   UNL     1      43.765  77.869  40.644  0.00  0.00    +0.100 C 
ENDROOT
BRANCH   1   2
ATOM      2  N   UNL     1      43.023  77.761  39.413  0.00  0.00    -0.170 NA
ATOM      3  C   UNL     1      42.260  76.593  39.040  0.00  0.00    +0.421 C 
ATOM      4  O   UNL     1      42.846  75.487  39.147  0.00  0.00    -0.225 OA
BRANCH   3   5
ATOM      5  O   UNL     1      40.956  76.713  38.589  0.00  0.00    -0.431 OA
BRANCH   5   6
ATOM      6  C   UNL     1      40.496  75.867  37.570  0.00  0.00    +0.242 C 
BRANCH   6   7
ATOM      7  C   UNL     1      39.111  76.176  37.098  0.00  0.00    +0.190 C 
BRANCH   7   8
ATOM      8  O   UNL     1      39.066  77.240  36.207  0.00  0.00    -0.347 OA
ATOM      9  C   UNL     1      37.833  77.460  35.640  0.00  0.00    +0.174 C 
ENDBRANCH   7   8
ENDBRANCH   6   7
ENDBRANCH   5   6
ENDBRANCH   3   5
ENDBRANCH   1   2
BRANCH   1  10
ATOM     10  C   UNL     1      44.670  78.997  40.782  0.00  0.00    +0.039 C 
BRANCH  10  11
ATOM     11  C   UNL     1      46.067  79.067  40.406  0.00  0.00    +0.074 C 
BRANCH  11  12
ATOM     12  N   UNL     1      46.547  80.131  39.566  0.00  0.00    -0.265 NA
ATOM     13  C   UNL     1      47.905  80.529  39.971  0.00  0.00    +0.073 C 
ATOM     14  C   UNL     1      47.795  81.629  40.961  0.00  0.00    +0.019 C 
ATOM     15  C   UNL     1      46.323  81.896  41.059  0.00  0.00    +0.029 C 
ATOM     16  C   UNL     1      45.790  81.372  39.746  0.00  0.00    +0.162 C 
BRANCH  16  17
ATOM     17  C   UNL     1      46.187  82.360  38.706  0.00  0.00    +0.379 C 
ATOM     18  O   UNL     1      47.035  82.054  37.852  0.00  0.00    -0.244 OA
ATOM     19  O   UNL     1      45.600  83.608  38.708  0.00  0.00    -0.244 OA
ENDBRANCH  16  17
ENDBRANCH  11  12
ENDBRANCH  10  11
ENDBRANCH   1  10
BRANCH   1  20
ATOM     20  C   UNL     1      42.936  77.415  41.781  0.00  0.00    +0.022 C 
BRANCH  20  21
ATOM     21  C   UNL     1      43.534  77.879  43.124  0.00  0.00    +0.004 C 
BRANCH  21  22
ATOM     22  C   UNL     1      43.566  76.630  44.006  0.00  0.00    +0.024 C 
BRANCH  22  23
ATOM     23  C   UNL     1      44.359  76.893  45.256  0.00  0.00    +0.119 C 
BRANCH  23  26
ATOM     24  C   UNL     1      44.943  75.695  47.397  0.00  0.00    +0.421 C 
ATOM     25  O   UNL     1      46.029  76.267  47.572  0.00  0.00    -0.225 OA
ATOM     26  N   UNL     1      44.279  75.778  46.163  0.00  0.00    -0.169 NA
BRANCH  24  27
ATOM     27  O   UNL     1      44.386  74.973  48.430  0.00  0.00    -0.431 OA
BRANCH  27  28
ATOM     28  C   UNL     1      44.274  73.585  48.502  0.00  0.00    +0.242 C 
BRANCH  28  29
ATOM     29  C   UNL     1      45.331  72.960  49.386  0.00  0.00    +0.190 C 
BRANCH  29  31
ATOM     30  C   UNL     1      45.893  72.453  51.586  0.00  0.00    +0.174 C 
ATOM     31  O   UNL     1      45.090  73.167  50.735  0.00  0.00    -0.347 OA
ENDBRANCH  29  31
ENDBRANCH  28  29
ENDBRANCH  27  28
ENDBRANCH  24  27
ENDBRANCH  23  26
ENDBRANCH  22  23
ENDBRANCH  21  22
ENDBRANCH  20  21
ENDBRANCH   1  20
TORSDOF 18
