REMARK  Name = Ropinirole
REMARK  7 active torsions:
REMARK  status: ('A' for Active; 'I' for Inactive)
REMARK    1  A    between atoms: C_2  and  C_3
REMARK    2  A    between atoms: C_3  and  N_4
REMARK    3  A    between atoms: N_4  and  C_5
REMARK    4  A    between atoms: N_4  and  C_8
REMARK    5  A    between atoms: C_5  and  C_6
REMARK    6  A    between atoms: C_8  and  C_9
REMARK    7  A    between atoms: C_9  and  C_10
REMARK                            x       y       z     vdW  Elec       q    Type
REMARK                         _______ _______ _______ _____ _____    ______ ____
ROOT
ATOM      1  C   UNL     1      46.023  80.474  40.287  0.00  0.00    -0.023 A 
ATOM      2  C   UNL     1      47.120  81.130  40.807  0.00  0.00    -0.002 A 
ATOM      3  C   UNL     1      47.975  80.692  41.933  0.00  0.00    +0.114 C 
ATOM      4  C   UNL     1      48.995  81.747  42.049  0.00  0.00    +0.250 C 
ATOM      5  O   UNL     1      49.949  81.785  42.904  0.00  0.00    -0.273 OA
ATOM      6  N   UNL     1      48.740  82.716  41.047  0.00  0.00    -0.179 NA
ATOM      7  C   UNL     1      47.603  82.302  40.325  0.00  0.00    +0.070 A 
ATOM      8  C   UNL     1      46.917  82.846  39.227  0.00  0.00    +0.016 A 
ATOM      9  C   UNL     1      45.819  82.241  38.661  0.00  0.00    +0.001 A 
ATOM     10  C   UNL     1      45.372  81.033  39.208  0.00  0.00    -0.004 A 
ENDROOT
BRANCH   1  11
ATOM     11  C   UNL     1      45.513  79.226  40.907  0.00  0.00    +0.043 C 
BRANCH  11  12
ATOM     12  C   UNL     1      44.380  78.742  40.055  0.00  0.00    +0.077 C 
BRANCH  12  13
ATOM     13  N   UNL     1      43.999  77.371  40.340  0.00  0.00    -0.272 NA
BRANCH  13  14
ATOM     14  C   UNL     1      42.691  77.112  39.885  0.00  0.00    +0.072 C 
BRANCH  14  16
ATOM     15  C   UNL     1      40.780  77.062  38.414  0.00  0.00    +0.001 C 
ATOM     16  C   UNL     1      42.257  77.485  38.544  0.00  0.00    +0.017 C 
ENDBRANCH  14  16
ENDBRANCH  13  14
BRANCH  13  17
ATOM     17  C   UNL     1      44.456  76.898  41.566  0.00  0.00    +0.072 C 
BRANCH  17  18
ATOM     18  C   UNL     1      43.538  76.345  42.592  0.00  0.00    +0.017 C 
ATOM     19  C   UNL     1      44.465  75.814  43.717  0.00  0.00    +0.001 C 
ENDBRANCH  17  18
ENDBRANCH  13  17
ENDBRANCH  12  13
ENDBRANCH  11  12
ENDBRANCH   1  11
TORSDOF 7
