REMARK  Name = Rosaprostol
REMARK  12 active torsions:
REMARK  status: ('A' for Active; 'I' for Inactive)
REMARK    1  A    between atoms: C_2  and  C_3
REMARK    2  A    between atoms: C_3  and  C_4
REMARK    3  A    between atoms: C_4  and  C_5
REMARK    4  A    between atoms: C_5  and  C_6
REMARK    5  A    between atoms: C_6  and  C_7
REMARK    6  A    between atoms: C_11  and  C_12
REMARK    7  A    between atoms: C_12  and  C_13
REMARK    8  A    between atoms: C_13  and  C_14
REMARK    9  A    between atoms: C_14  and  C_15
REMARK   10  A    between atoms: C_15  and  C_16
REMARK   11  A    between atoms: C_16  and  C_17
REMARK   12  A    between atoms: C_17  and  C_18
REMARK                            x       y       z     vdW  Elec       q    Type
REMARK                         _______ _______ _______ _____ _____    ______ ____
ROOT
ATOM      1  C   UNL     1      47.480  81.250  40.457  0.00  0.00    +0.003 C 
ATOM      2  C   UNL     1      47.656  82.629  39.980  0.00  0.00    +0.003 C 
ATOM      3  C   UNL     1      46.392  82.989  39.191  0.00  0.00    +0.033 C 
ATOM      4  C   UNL     1      45.598  81.679  39.140  0.00  0.00    +0.152 C 
ATOM      5  C   UNL     1      45.960  81.086  40.481  0.00  0.00    +0.030 C 
ATOM      6  O   UNL     1      46.123  80.945  38.085  0.00  0.00    -0.223 OA
ENDROOT
BRANCH   1   7
ATOM      7  C   UNL     1      48.117  80.790  41.691  0.00  0.00    +0.000 C 
BRANCH   7   8
ATOM      8  C   UNL     1      49.499  81.115  42.038  0.00  0.00    +0.000 C 
BRANCH   8   9
ATOM      9  C   UNL     1      49.824  82.371  42.752  0.00  0.00    +0.000 C 
BRANCH   9  10
ATOM     10  C   UNL     1      50.111  82.230  44.215  0.00  0.00    +0.000 C 
BRANCH  10  12
ATOM     11  C   UNL     1      50.917  84.560  44.417  0.00  0.00    +0.000 C 
ATOM     12  C   UNL     1      51.270  83.098  44.659  0.00  0.00    +0.000 C 
ENDBRANCH  10  12
ENDBRANCH   9  10
ENDBRANCH   8   9
ENDBRANCH   7   8
ENDBRANCH   1   7
BRANCH   5  13
ATOM     13  C   UNL     1      45.573  79.638  40.609  0.00  0.00    +0.003 C 
BRANCH  13  14
ATOM     14  C   UNL     1      44.130  79.391  40.261  0.00  0.00    +0.000 C 
BRANCH  14  15
ATOM     15  C   UNL     1      43.962  78.339  39.209  0.00  0.00    +0.000 C 
BRANCH  15  16
ATOM     16  C   UNL     1      42.778  77.439  39.478  0.00  0.00    +0.001 C 
BRANCH  16  17
ATOM     17  C   UNL     1      41.553  77.945  38.786  0.00  0.00    +0.012 C 
BRANCH  17  18
ATOM     18  C   UNL     1      41.194  77.156  37.561  0.00  0.00    +0.114 C 
BRANCH  18  19
ATOM     19  C   UNL     1      40.154  76.143  37.764  0.00  0.00    +0.365 C 
ATOM     20  O   UNL     1      39.810  75.459  36.767  0.00  0.00    -0.246 OA
ATOM     21  O   UNL     1      39.509  75.864  38.959  0.00  0.00    -0.246 OA
ENDBRANCH  18  19
ENDBRANCH  17  18
ENDBRANCH  16  17
ENDBRANCH  15  16
ENDBRANCH  14  15
ENDBRANCH  13  14
ENDBRANCH   5  13
TORSDOF 12
