REMARK  Name = Rosaramicin
REMARK  6 active torsions:
REMARK  status: ('A' for Active; 'I' for Inactive)
REMARK    1  A    between atoms: C_2  and  C_3
REMARK    2  A    between atoms: C_14  and  C_36
REMARK    3  A    between atoms: C_15  and  O_24
REMARK    4  A    between atoms: O_24  and  C_25
REMARK    5  A    between atoms: C_27  and  N_32
REMARK    6  A    between atoms: C_36  and  C_37
REMARK                            x       y       z     vdW  Elec       q    Type
REMARK                         _______ _______ _______ _____ _____    ______ ____
ROOT
ATOM      1  C   UNL     1      48.505  82.227  40.610  0.00  0.00    +0.171 C 
ATOM      2  C   UNL     1      48.343  81.594  41.916  0.00  0.00    +0.070 C 
ATOM      3  C   UNL     1      49.457  80.699  42.393  0.00  0.00    +0.147 C 
ATOM      4  C   UNL     1      49.556  79.358  41.924  0.00  0.00    +0.136 C 
ATOM      5  O   UNL     1      48.843  79.539  43.064  0.00  0.00    -0.352 OA
ATOM      6  C   UNL     1      48.981  79.025  40.618  0.00  0.00    +0.006 C 
ATOM      7  C   UNL     1      48.090  78.123  40.281  0.00  0.00    +0.035 C 
ATOM      8  C   UNL     1      47.395  77.168  41.139  0.00  0.00    +0.172 C 
ATOM      9  O   UNL     1      47.796  75.936  41.039  0.00  0.00    -0.291 OA
ATOM     10  C   UNL     1      46.298  77.452  42.097  0.00  0.00    +0.062 C 
ATOM     11  C   UNL     1      44.910  77.263  41.608  0.00  0.00    +0.011 C 
ATOM     12  C   UNL     1      44.593  77.497  40.188  0.00  0.00    +0.036 C 
ATOM     13  C   UNL     1      43.525  78.439  39.825  0.00  0.00    +0.121 C 
ATOM     14  C   UNL     1      43.631  79.880  40.139  0.00  0.00    +0.058 C 
ATOM     15  C   UNL     1      44.859  80.432  40.720  0.00  0.00    +0.165 C 
ATOM     16  C   UNL     1      45.239  81.831  40.199  0.00  0.00    +0.142 C 
ATOM     17  C   UNL     1      46.394  81.812  39.299  0.00  0.00    +0.319 C 
ATOM     18  O   UNL     1      46.114  81.838  38.040  0.00  0.00    -0.250 OA
ATOM     19  O   UNL     1      47.699  81.772  39.579  0.00  0.00    -0.452 OA
ATOM     20  O   UNL     1      44.712  80.592  42.122  0.00  0.00    -0.222 OA
ATOM     21  C   UNL     1      42.478  80.224  41.099  0.00  0.00    +0.005 C 
ATOM     22  C   UNL     1      46.559  76.643  43.371  0.00  0.00    +0.008 C 
ATOM     23  C   UNL     1      50.967  78.728  42.081  0.00  0.00    +0.037 C 
ATOM     24  C   UNL     1      48.137  82.603  43.016  0.00  0.00    +0.006 C 
ENDROOT
BRANCH   1  26
ATOM     25  C   UNL     1      48.066  84.347  41.929  0.00  0.00    +0.004 C 
ATOM     26  C   UNL     1      48.521  83.726  40.656  0.00  0.00    +0.044 C 
ENDBRANCH   1  26
BRANCH  13  27
ATOM     27  O   UNL     1      42.275  77.933  40.230  0.00  0.00    -0.331 OA
BRANCH  27  28
ATOM     28  C   UNL     1      41.314  77.952  39.251  0.00  0.00    +0.268 C 
ATOM     29  C   UNL     1      41.782  77.797  37.844  0.00  0.00    +0.222 C 
ATOM     30  C   UNL     1      40.874  76.831  37.101  0.00  0.00    +0.096 C 
ATOM     31  C   UNL     1      39.438  77.130  37.433  0.00  0.00    +0.048 C 
ATOM     32  C   UNL     1      39.258  76.946  38.929  0.00  0.00    +0.119 C 
ATOM     33  O   UNL     1      40.512  76.790  39.502  0.00  0.00    -0.331 OA
ATOM     34  C   UNL     1      38.526  78.135  39.529  0.00  0.00    +0.032 C 
ATOM     35  O   UNL     1      41.753  78.991  37.104  0.00  0.00    -0.216 OA
BRANCH  30  36
ATOM     36  N   UNL     1      41.129  75.459  37.562  0.00  0.00    -0.269 NA
ATOM     37  C   UNL     1      40.126  75.139  38.548  0.00  0.00    +0.090 C 
ATOM     38  C   UNL     1      40.985  74.544  36.453  0.00  0.00    +0.090 C 
ENDBRANCH  30  36
ENDBRANCH  27  28
ENDBRANCH  13  27
BRANCH  12  39
ATOM     39  C   UNL     1      44.089  76.136  39.631  0.00  0.00    +0.075 C 
BRANCH  39  40
ATOM     40  C   UNL     1      43.000  75.558  40.402  0.00  0.00    +0.207 C 
ATOM     41  O   UNL     1      43.058  75.496  41.613  0.00  0.00    -0.288 OA
ENDBRANCH  39  40
ENDBRANCH  12  39
TORSDOF 6
