REMARK  Name = Rosiglitazone_XR
REMARK  9 active torsions:
REMARK  status: ('A' for Active; 'I' for Inactive)
REMARK    1  A    between atoms: N_2  and  C_3
REMARK    2  A    between atoms: N_2  and  C_20
REMARK    3  A    between atoms: C_3  and  C_4
REMARK    4  A    between atoms: C_4  and  O_5
REMARK    5  A    between atoms: O_5  and  C_6
REMARK    6  A    between atoms: C_9  and  C_12
REMARK    7  A    between atoms: C_12  and  C_13
REMARK    8  A    between atoms: C_26  and  C_31
REMARK    9  A    between atoms: C_27  and  C_28
REMARK                            x       y       z     vdW  Elec       q    Type
REMARK                         _______ _______ _______ _____ _____    ______ ____
ROOT
ATOM      1  C   UNL     1      46.152  80.510  41.313  0.00  0.00    +0.139 A 
ATOM      2  C   UNL     1      46.579  81.716  40.730  0.00  0.00    +0.037 A 
ATOM      3  C   UNL     1      47.887  82.112  40.878  0.00  0.00    -0.001 A 
ATOM      4  C   UNL     1      48.812  81.379  41.577  0.00  0.00    -0.021 A 
ATOM      5  C   UNL     1      48.408  80.204  42.148  0.00  0.00    -0.001 A 
ATOM      6  C   UNL     1      47.080  79.787  42.007  0.00  0.00    +0.037 A 
ENDROOT
BRANCH   1   7
ATOM      7  O   UNL     1      44.872  80.147  41.156  0.00  0.00    -0.474 OA
BRANCH   7   8
ATOM      8  C   UNL     1      44.170  79.067  41.562  0.00  0.00    +0.227 C 
BRANCH   8   9
ATOM      9  C   UNL     1      44.635  77.771  40.965  0.00  0.00    +0.140 C 
BRANCH   9  11
ATOM     10  C   UNL     1      45.724  78.061  38.740  0.00  0.00    +0.114 C 
ATOM     11  N   UNL     1      44.541  77.794  39.525  0.00  0.00    -0.288 N 
BRANCH  11  12
ATOM     12  C   UNL     1      43.314  77.542  38.867  0.00  0.00    +0.132 A 
ATOM     13  C   UNL     1      42.915  78.269  37.766  0.00  0.00    +0.034 A 
ATOM     14  C   UNL     1      41.718  78.001  37.147  0.00  0.00    +0.004 A 
ATOM     15  C   UNL     1      40.887  76.989  37.624  0.00  0.00    +0.021 A 
ATOM     16  C   UNL     1      41.300  76.280  38.716  0.00  0.00    +0.100 A 
ATOM     17  N   UNL     1      42.477  76.566  39.299  0.00  0.00    -0.229 NA
ENDBRANCH  11  12
ENDBRANCH   9  11
ENDBRANCH   8   9
ENDBRANCH   7   8
ENDBRANCH   1   7
BRANCH   4  18
ATOM     18  C   UNL     1      50.187  81.854  41.706  0.00  0.00    +0.047 C 
BRANCH  18  19
ATOM     19  C   UNL     1      50.520  82.360  43.088  0.00  0.00    +0.139 C 
ATOM     20  C   UNL     1      51.683  83.270  43.042  0.00  0.00    +0.259 C 
ATOM     21  O   UNL     1      52.770  82.845  42.470  0.00  0.00    -0.272 OA
ATOM     22  N   UNL     1      51.523  84.522  43.621  0.00  0.00    -0.135 NA
ATOM     23  C   UNL     1      50.277  84.788  44.214  0.00  0.00    +0.299 C 
ATOM     24  O   UNL     1      49.974  85.698  44.985  0.00  0.00    -0.261 OA
ATOM     25  S   UNL     1      49.208  83.504  43.602  0.00  0.00    -0.046 S 
ENDBRANCH  18  19
ENDBRANCH   4  18
TORSDOF 7
REMARK  Name = Rosiglitazone_XR
REMARK  9 active torsions:
REMARK  status: ('A' for Active; 'I' for Inactive)
REMARK    1  A    between atoms: N_2  and  C_3
REMARK    2  A    between atoms: N_2  and  C_20
REMARK    3  A    between atoms: C_3  and  C_4
REMARK    4  A    between atoms: C_4  and  O_5
REMARK    5  A    between atoms: O_5  and  C_6
REMARK    6  A    between atoms: C_9  and  C_12
REMARK    7  A    between atoms: C_12  and  C_13
REMARK    8  A    between atoms: C_26  and  C_31
REMARK    9  A    between atoms: C_27  and  C_28
REMARK                            x       y       z     vdW  Elec       q    Type
REMARK                         _______ _______ _______ _____ _____    ______ ____
ROOT
ATOM      1  C   UNL     1      45.905  80.353  39.869  0.00  0.00    +0.093 C 
ATOM      2  C   UNL     1      46.878  81.123  40.217  0.00  0.00    +0.093 C 
ENDROOT
BRANCH   2   3
ATOM      3  C   UNL     1      48.190  80.825  40.693  0.00  0.00    +0.388 C 
ATOM      4  O   UNL     1      49.053  81.765  40.727  0.00  0.00    -0.241 OA
ATOM      5  O   UNL     1      48.631  79.612  41.127  0.00  0.00    -0.241 OA
ENDBRANCH   2   3
BRANCH   1   6
ATOM      6  C   UNL     1      44.746  80.731  39.137  0.00  0.00    +0.388 C 
ATOM      7  O   UNL     1      44.640  81.662  38.302  0.00  0.00    -0.241 OA
ATOM      8  O   UNL     1      43.527  80.003  39.331  0.00  0.00    -0.241 OA
ENDBRANCH   1   6
TORSDOF 2
