REMARK  Name = Rosoxacin
REMARK  3 active torsions:
REMARK  status: ('A' for Active; 'I' for Inactive)
REMARK    1  A    between atoms: C_2  and  N_3
REMARK    2  A    between atoms: C_5  and  C_20
REMARK    3  A    between atoms: C_11  and  C_14
REMARK                            x       y       z     vdW  Elec       q    Type
REMARK                         _______ _______ _______ _____ _____    ______ ____
ROOT
ATOM      1  N   UNL     1      48.603  83.609  42.305  0.00  0.00    -0.326 N 
ATOM      2  C   UNL     1      49.796  83.831  42.942  0.00  0.00    +0.086 A 
ATOM      3  C   UNL     1      50.721  82.835  43.140  0.00  0.00    +0.136 A 
ATOM      4  C   UNL     1      50.395  81.584  42.663  0.00  0.00    +0.205 A 
ATOM      5  O   UNL     1      51.197  80.608  42.806  0.00  0.00    -0.286 OA
ATOM      6  C   UNL     1      49.193  81.331  42.013  0.00  0.00    +0.055 A 
ATOM      7  C   UNL     1      48.298  82.388  41.846  0.00  0.00    +0.063 A 
ATOM      8  C   UNL     1      47.109  82.159  41.215  0.00  0.00    +0.017 A 
ATOM      9  C   UNL     1      46.821  80.872  40.753  0.00  0.00    +0.002 A 
ATOM     10  C   UNL     1      47.691  79.819  40.908  0.00  0.00    +0.000 A 
ATOM     11  C   UNL     1      48.882  80.078  41.548  0.00  0.00    +0.005 A 
ENDROOT
BRANCH   9  12
ATOM     12  C   UNL     1      45.563  80.605  40.079  0.00  0.00    +0.003 A 
ATOM     13  C   UNL     1      45.541  79.856  38.926  0.00  0.00    +0.021 A 
ATOM     14  C   UNL     1      44.353  79.585  38.259  0.00  0.00    +0.099 A 
ATOM     15  N   UNL     1      43.175  80.063  38.745  0.00  0.00    -0.242 NA
ATOM     16  C   UNL     1      43.168  80.796  39.867  0.00  0.00    +0.099 A 
ATOM     17  C   UNL     1      44.348  81.071  40.539  0.00  0.00    +0.021 A 
ENDBRANCH   9  12
BRANCH   3  18
ATOM     18  C   UNL     1      51.995  83.058  43.817  0.00  0.00    +0.392 C 
ATOM     19  O   UNL     1      52.020  83.722  44.881  0.00  0.00    -0.240 OA
ATOM     20  O   UNL     1      53.155  82.532  43.273  0.00  0.00    -0.240 OA
ENDBRANCH   3  18
BRANCH   1  22
ATOM     21  C   UNL     1      46.858  84.816  43.394  0.00  0.00    +0.026 C 
ATOM     22  C   UNL     1      47.713  84.739  42.141  0.00  0.00    +0.106 C 
ENDBRANCH   1  22
TORSDOF 3
