REMARK  Name = Rosuvastatin
REMARK  9 active torsions:
REMARK  status: ('A' for Active; 'I' for Inactive)
REMARK    1  A    between atoms: C_2  and  C_4
REMARK    2  A    between atoms: C_8  and  C_21
REMARK    3  A    between atoms: C_9  and  C_10
REMARK    4  A    between atoms: C_11  and  C_12
REMARK    5  A    between atoms: C_12  and  C_13
REMARK    6  A    between atoms: C_13  and  C_14
REMARK    7  A    between atoms: C_14  and  C_15
REMARK    8  A    between atoms: C_15  and  C_16
REMARK    9  A    between atoms: N_28  and  S_30
REMARK                            x       y       z     vdW  Elec       q    Type
REMARK                         _______ _______ _______ _____ _____    ______ ____
ROOT
ATOM      1  C   UNL     1      47.499  81.514  40.136  0.00  0.00    +0.063 A 
ATOM      2  N   UNL     1      48.502  81.755  40.987  0.00  0.00    -0.217 NA
ATOM      3  C   UNL     1      48.761  80.965  42.050  0.00  0.00    +0.239 A 
ATOM      4  N   UNL     1      47.984  79.893  42.263  0.00  0.00    -0.212 NA
ATOM      5  C   UNL     1      46.931  79.563  41.440  0.00  0.00    +0.085 A 
ATOM      6  C   UNL     1      46.692  80.385  40.377  0.00  0.00    +0.031 A 
ATOM      7  N   UNL     1      49.849  81.324  42.882  0.00  0.00    -0.160 N 
ATOM      8  C   UNL     1      50.399  80.322  43.763  0.00  0.00    +0.142 C 
ENDROOT
BRANCH   5   9
ATOM      9  C   UNL     1      46.230  78.332  41.770  0.00  0.00    +0.018 A 
ATOM     10  C   UNL     1      46.232  77.278  40.841  0.00  0.00    +0.004 A 
ATOM     11  C   UNL     1      45.565  76.118  41.163  0.00  0.00    +0.030 A 
ATOM     12  C   UNL     1      44.891  75.926  42.350  0.00  0.00    +0.140 A 
ATOM     13  C   UNL     1      44.907  76.989  43.253  0.00  0.00    +0.030 A 
ATOM     14  C   UNL     1      45.562  78.171  42.973  0.00  0.00    +0.004 A 
ATOM     15  F   UNL     1      44.248  74.770  42.630  0.00  0.00    -0.204 F 
ENDBRANCH   5   9
BRANCH   7  16
ATOM     16  S   UNL     1      50.521  82.906  42.868  0.00  0.00    +0.061 S 
ATOM     17  O   UNL     1      49.437  83.930  42.861  0.00  0.00    -0.154 OA
ATOM     18  O   UNL     1      51.409  83.117  44.069  0.00  0.00    -0.154 OA
ATOM     19  C   UNL     1      51.463  83.135  41.358  0.00  0.00    +0.200 C 
ENDBRANCH   7  16
BRANCH   1  21
ATOM     20  C   UNL     1      48.493  82.522  38.160  0.00  0.00    +0.006 C 
ATOM     21  C   UNL     1      47.241  82.425  38.972  0.00  0.00    +0.040 C 
ATOM     22  C   UNL     1      46.967  83.807  39.594  0.00  0.00    +0.006 C 
ENDBRANCH   1  21
BRANCH   6  23
ATOM     23  C   UNL     1      45.617  80.147  39.463  0.00  0.00    +0.001 C 
ATOM     24  C   UNL     1      44.330  80.136  39.638  0.00  0.00    +0.006 C 
BRANCH  24  25
ATOM     25  C   UNL     1      43.395  79.786  38.513  0.00  0.00    +0.177 C 
ATOM     26  O   UNL     1      42.894  80.992  38.017  0.00  0.00    -0.218 OA
BRANCH  25  27
ATOM     27  C   UNL     1      42.254  78.952  38.986  0.00  0.00    +0.071 C 
BRANCH  27  28
ATOM     28  C   UNL     1      41.300  78.662  37.879  0.00  0.00    +0.166 C 
ATOM     29  O   UNL     1      41.989  78.152  36.742  0.00  0.00    -0.222 OA
BRANCH  28  30
ATOM     30  C   UNL     1      40.135  77.785  38.190  0.00  0.00    +0.147 C 
BRANCH  30  31
ATOM     31  C   UNL     1      39.281  77.592  37.017  0.00  0.00    +0.367 C 
ATOM     32  O   UNL     1      38.234  76.928  37.089  0.00  0.00    -0.246 OA
ATOM     33  O   UNL     1      39.582  78.130  35.764  0.00  0.00    -0.246 OA
ENDBRANCH  30  31
ENDBRANCH  28  30
ENDBRANCH  27  28
ENDBRANCH  25  27
ENDBRANCH  24  25
ENDBRANCH   6  23
TORSDOF 9
