REMARK  Name = Rucaparib
REMARK  3 active torsions:
REMARK  status: ('A' for Active; 'I' for Inactive)
REMARK    1  A    between atoms: N_2  and  C_3
REMARK    2  A    between atoms: C_3  and  C_4
REMARK    3  A    between atoms: C_7  and  C_10
REMARK                            x       y       z     vdW  Elec       q    Type
REMARK                         _______ _______ _______ _____ _____    ______ ____
ROOT
ATOM      1  C   UNL     1      48.081  80.888  41.736  0.00  0.00    +0.077 A 
ATOM      2  C   UNL     1      47.389  81.414  40.661  0.00  0.00    -0.001 A 
ATOM      3  C   UNL     1      47.723  82.707  40.072  0.00  0.00    +0.051 C 
ATOM      4  C   UNL     1      47.435  82.870  38.599  0.00  0.00    +0.120 C 
ATOM      5  N   UNL     1      46.061  82.799  38.224  0.00  0.00    -0.201 NA
ATOM      6  C   UNL     1      45.241  81.620  38.315  0.00  0.00    +0.265 C 
ATOM      7  O   UNL     1      44.277  81.515  37.543  0.00  0.00    -0.268 OA
ATOM      8  C   UNL     1      45.499  80.542  39.283  0.00  0.00    +0.058 A 
ATOM      9  C   UNL     1      46.426  80.462  40.290  0.00  0.00    +0.020 A 
ATOM     10  C   UNL     1      46.545  79.383  41.127  0.00  0.00    +0.083 A 
ATOM     11  C   UNL     1      45.666  78.335  40.915  0.00  0.00    +0.049 A 
ATOM     12  C   UNL     1      44.728  78.394  39.908  0.00  0.00    +0.142 A 
ATOM     13  C   UNL     1      44.608  79.478  39.068  0.00  0.00    +0.034 A 
ATOM     14  F   UNL     1      43.869  77.354  39.710  0.00  0.00    -0.204 F 
ATOM     15  N   UNL     1      47.538  79.661  41.979  0.00  0.00    -0.246 NA
ENDROOT
BRANCH   1  19
ATOM     16  C   UNL     1      51.350  82.427  43.996  0.00  0.00    -0.005 A 
ATOM     17  C   UNL     1      50.176  83.135  43.868  0.00  0.00    -0.003 A 
ATOM     18  C   UNL     1      49.119  82.620  43.154  0.00  0.00    +0.001 A 
ATOM     19  C   UNL     1      49.201  81.362  42.534  0.00  0.00    +0.017 A 
ATOM     20  C   UNL     1      50.355  80.665  42.657  0.00  0.00    +0.001 A 
ATOM     21  C   UNL     1      51.437  81.199  43.392  0.00  0.00    -0.003 A 
BRANCH  16  22
ATOM     22  C   UNL     1      52.488  82.965  44.757  0.00  0.00    +0.115 C 
BRANCH  22  24
ATOM     23  C   UNL     1      53.869  83.476  42.883  0.00  0.00    +0.108 C 
ATOM     24  N   UNL     1      53.163  84.014  44.016  0.00  0.00    -0.212 NA
ENDBRANCH  22  24
ENDBRANCH  16  22
ENDBRANCH   1  19
TORSDOF 3
