REMARK  Name = Rufinamide
REMARK  3 active torsions:
REMARK  status: ('A' for Active; 'I' for Inactive)
REMARK    1  A    between atoms: C_4  and  C_8
REMARK    2  A    between atoms: C_8  and  N_9
REMARK    3  A    between atoms: C_11  and  C_14
REMARK                            x       y       z     vdW  Elec       q    Type
REMARK                         _______ _______ _______ _____ _____    ______ ____
ROOT
ATOM      1  C   UNL     1      48.414  81.479  42.398  0.00  0.00    +0.160 C 
ENDROOT
BRANCH   1   5
ATOM      2  C   UNL     1      50.654  84.892  43.725  0.00  0.00    +0.005 A 
ATOM      3  C   UNL     1      51.309  83.808  43.182  0.00  0.00    +0.030 A 
ATOM      4  C   UNL     1      50.563  82.711  42.758  0.00  0.00    +0.140 A 
ATOM      5  C   UNL     1      49.192  82.661  42.858  0.00  0.00    +0.057 A 
ATOM      6  C   UNL     1      48.543  83.748  43.402  0.00  0.00    +0.140 A 
ATOM      7  C   UNL     1      49.278  84.837  43.823  0.00  0.00    +0.030 A 
ATOM      8  F   UNL     1      47.192  83.793  43.543  0.00  0.00    -0.204 F 
ATOM      9  F   UNL     1      51.243  81.669  42.232  0.00  0.00    -0.204 F 
ENDBRANCH   1   5
BRANCH   1  10
ATOM     10  N   UNL     1      47.695  81.701  41.186  0.00  0.00    -0.225 N 
ATOM     11  C   UNL     1      46.679  80.967  40.711  0.00  0.00    +0.123 A 
ATOM     12  C   UNL     1      46.274  81.537  39.505  0.00  0.00    +0.180 A 
ATOM     13  N   UNL     1      47.076  82.595  39.316  0.00  0.00    -0.124 NA
ATOM     14  N   UNL     1      47.910  82.672  40.325  0.00  0.00    -0.063 NA
BRANCH  12  15
ATOM     15  C   UNL     1      45.194  81.041  38.664  0.00  0.00    +0.305 C 
ATOM     16  O   UNL     1      44.823  81.644  37.649  0.00  0.00    -0.265 OA
ATOM     17  N   UNL     1      44.554  79.831  39.025  0.00  0.00    -0.082 NA
ENDBRANCH  12  15
ENDBRANCH   1  10
TORSDOF 3
