REMARK  Name = Ruxolitinib
REMARK  5 active torsions:
REMARK  status: ('A' for Active; 'I' for Inactive)
REMARK    1  A    between atoms: C_4  and  C_6
REMARK    2  A    between atoms: C_6  and  C_7
REMARK    3  A    between atoms: C_6  and  N_10
REMARK    4  A    between atoms: C_7  and  C_8
REMARK    5  A    between atoms: C_12  and  C_15
REMARK                            x       y       z     vdW  Elec       q    Type
REMARK                         _______ _______ _______ _____ _____    ______ ____
ROOT
ATOM      1  N   UNL     1      49.118  81.776  42.306  0.00  0.00    -0.250 N 
ATOM      2  C   UNL     1      48.375  82.138  41.217  0.00  0.00    +0.098 A 
ATOM      3  C   UNL     1      47.339  81.218  41.040  0.00  0.00    +0.057 A 
ATOM      4  C   UNL     1      47.497  80.314  42.051  0.00  0.00    +0.123 A 
ATOM      5  N   UNL     1      48.556  80.692  42.762  0.00  0.00    -0.168 NA
ENDROOT
BRANCH   3   6
ATOM      6  C   UNL     1      46.341  81.276  39.978  0.00  0.00    +0.089 A 
ATOM      7  C   UNL     1      45.426  80.257  39.886  0.00  0.00    +0.055 A 
ATOM      8  C   UNL     1      45.215  79.105  40.619  0.00  0.00    +0.025 A 
ATOM      9  C   UNL     1      44.129  78.476  40.033  0.00  0.00    +0.101 A 
ATOM     10  N   UNL     1      43.719  79.224  39.001  0.00  0.00    -0.225 NA
ATOM     11  C   UNL     1      44.477  80.309  38.879  0.00  0.00    +0.166 A 
ATOM     12  N   UNL     1      44.482  81.352  38.029  0.00  0.00    -0.205 NA
ATOM     13  C   UNL     1      45.389  82.329  38.147  0.00  0.00    +0.200 A 
ATOM     14  N   UNL     1      46.311  82.308  39.101  0.00  0.00    -0.224 NA
ENDBRANCH   3   6
BRANCH   1  15
ATOM     15  C   UNL     1      50.275  82.515  42.775  0.00  0.00    +0.120 C 
BRANCH  15  19
ATOM     16  C   UNL     1      48.578  85.442  43.203  0.00  0.00    +0.000 C 
ATOM     17  C   UNL     1      47.687  84.426  43.837  0.00  0.00    +0.000 C 
ATOM     18  C   UNL     1      48.557  83.327  44.365  0.00  0.00    +0.002 C 
ATOM     19  C   UNL     1      49.930  83.526  43.829  0.00  0.00    +0.024 C 
ATOM     20  C   UNL     1      50.005  84.941  43.391  0.00  0.00    +0.002 C 
ENDBRANCH  15  19
BRANCH  15  21
ATOM     21  C   UNL     1      51.347  81.556  43.174  0.00  0.00    +0.130 C 
BRANCH  21  22
ATOM     22  C   UNL     1      52.629  82.297  43.109  0.00  0.00    +0.075 C 
ATOM     23  N   UNL     1      53.621  82.893  43.065  0.00  0.00    -0.196 NA
ENDBRANCH  21  22
ENDBRANCH  15  21
ENDBRANCH   1  15
TORSDOF 5
