REMARK  Name = Rv-11
REMARK  11 active torsions:
REMARK  status: ('A' for Active; 'I' for Inactive)
REMARK    1  A    between atoms: C_2  and  C_3
REMARK    2  A    between atoms: C_12  and  O_33
REMARK    3  A    between atoms: C_14  and  O_20
REMARK    4  A    between atoms: O_20  and  C_21
REMARK    5  A    between atoms: C_23  and  O_30
REMARK    6  A    between atoms: O_33  and  C_34
REMARK    7  A    between atoms: C_36  and  N_41
REMARK    8  A    between atoms: C_53  and  C_54
REMARK    9  A    between atoms: C_57  and  C_58
REMARK   10  A    between atoms: C_57  and  C_63
REMARK   11  A    between atoms: C_58  and  C_59
REMARK                            x       y       z     vdW  Elec       q    Type
REMARK                         _______ _______ _______ _____ _____    ______ ____
ROOT
ATOM      1  C   UNL     1      41.501  73.989  39.781  0.00  0.00    +0.199 C 
ATOM      2  C   UNL     1      40.495  74.555  38.765  0.00  0.00    +0.191 C 
ATOM      3  C   UNL     1      40.181  76.007  39.045  0.00  0.00    +0.190 C 
ATOM      4  C   UNL     1      40.407  76.910  37.883  0.00  0.00    +0.091 C 
ATOM      5  C   UNL     1      41.707  77.636  37.949  0.00  0.00    +0.152 C 
ATOM      6  O   UNL     1      42.598  77.241  37.204  0.00  0.00    -0.296 OA
ATOM      7  C   UNL     1      41.951  78.793  38.864  0.00  0.00    +0.060 C 
ATOM      8  C   UNL     1      43.014  78.392  39.829  0.00  0.00    +0.040 C 
ATOM      9  C   UNL     1      44.228  79.235  39.878  0.00  0.00    +0.152 C 
ATOM     10  C   UNL     1      45.379  78.619  40.627  0.00  0.00    +0.148 C 
ATOM     11  C   UNL     1      45.711  77.180  40.391  0.00  0.00    +0.058 C 
ATOM     12  C   UNL     1      45.421  76.187  41.425  0.00  0.00    +0.131 C 
ATOM     13  C   UNL     1      44.245  75.290  41.431  0.00  0.00    +0.126 C 
ATOM     14  C   UNL     1      43.925  74.577  40.172  0.00  0.00    +0.319 C 
ATOM     15  O   UNL     1      44.949  73.914  39.725  0.00  0.00    -0.250 OA
ATOM     16  O   UNL     1      42.723  74.590  39.534  0.00  0.00    -0.450 OA
ATOM     17  C   UNL     1      43.054  75.736  42.225  0.00  0.00    +0.014 C 
ATOM     18  C   UNL     1      45.713  76.734  38.971  0.00  0.00    +0.005 C 
ATOM     19  C   UNL     1      43.872  80.503  40.675  0.00  0.00    +0.035 C 
ATOM     20  O   UNL     1      44.625  79.708  38.624  0.00  0.00    -0.223 OA
ATOM     21  C   UNL     1      42.253  79.960  37.980  0.00  0.00    +0.008 C 
ATOM     22  C   UNL     1      39.250  77.897  37.808  0.00  0.00    +0.010 C 
ATOM     23  O   UNL     1      38.852  76.139  39.449  0.00  0.00    -0.220 OA
ATOM     24  C   UNL     1      39.198  73.763  38.835  0.00  0.00    +0.039 C 
ATOM     25  O   UNL     1      41.035  74.355  37.517  0.00  0.00    -0.219 OA
ENDROOT
BRANCH   1  27
ATOM     26  C   UNL     1      41.765  72.128  38.106  0.00  0.00    +0.004 C 
ATOM     27  C   UNL     1      41.511  72.485  39.528  0.00  0.00    +0.046 C 
ENDBRANCH   1  27
BRANCH  12  28
ATOM     28  O   UNL     1      45.406  76.800  42.690  0.00  0.00    -0.332 OA
BRANCH  28  29
ATOM     29  C   UNL     1      46.389  76.336  43.550  0.00  0.00    +0.238 C 
ATOM     30  C   UNL     1      47.285  77.346  44.138  0.00  0.00    +0.091 C 
ATOM     31  C   UNL     1      47.482  77.097  45.621  0.00  0.00    +0.128 C 
ATOM     32  C   UNL     1      47.880  75.641  45.795  0.00  0.00    +0.204 C 
ATOM     33  C   UNL     1      46.917  74.749  45.031  0.00  0.00    +0.150 C 
ATOM     34  O   UNL     1      45.831  75.548  44.573  0.00  0.00    -0.330 OA
ATOM     35  C   UNL     1      46.470  73.649  45.946  0.00  0.00    +0.035 C 
ATOM     36  O   UNL     1      49.144  75.463  45.242  0.00  0.00    -0.218 OA
ATOM     37  C   UNL     1      48.493  78.030  46.219  0.00  0.00    +0.033 C 
BRANCH  31  38
ATOM     38  O   UNL     1      46.229  77.260  46.197  0.00  0.00    -0.353 OA
ATOM     39  C   UNL     1      46.207  77.420  47.550  0.00  0.00    +0.174 C 
ENDBRANCH  31  38
ENDBRANCH  28  29
ENDBRANCH  12  28
BRANCH  10  40
ATOM     40  O   UNL     1      46.516  79.436  40.497  0.00  0.00    -0.328 OA
BRANCH  40  41
ATOM     41  C   UNL     1      47.032  80.087  41.522  0.00  0.00    +0.268 C 
ATOM     42  C   UNL     1      47.050  81.576  41.225  0.00  0.00    +0.222 C 
ATOM     43  C   UNL     1      48.458  82.119  41.195  0.00  0.00    +0.096 C 
ATOM     44  C   UNL     1      49.308  81.242  40.305  0.00  0.00    +0.048 C 
ATOM     45  C   UNL     1      49.193  79.813  40.770  0.00  0.00    +0.119 C 
ATOM     46  O   UNL     1      48.340  79.691  41.867  0.00  0.00    -0.331 OA
ATOM     47  C   UNL     1      50.562  79.352  41.210  0.00  0.00    +0.032 C 
ATOM     48  O   UNL     1      46.244  82.293  42.106  0.00  0.00    -0.216 OA
BRANCH  43  49
ATOM     49  N   UNL     1      49.026  82.288  42.504  0.00  0.00    -0.269 NA
ATOM     50  C   UNL     1      50.289  83.006  42.461  0.00  0.00    +0.090 C 
ATOM     51  C   UNL     1      48.147  83.069  43.351  0.00  0.00    +0.090 C 
ENDBRANCH  43  49
ENDBRANCH  40  41
ENDBRANCH  10  40
TORSDOF 7
REMARK  Name = Rv-11
REMARK  11 active torsions:
REMARK  status: ('A' for Active; 'I' for Inactive)
REMARK    1  A    between atoms: C_2  and  C_3
REMARK    2  A    between atoms: C_12  and  O_33
REMARK    3  A    between atoms: C_14  and  O_20
REMARK    4  A    between atoms: O_20  and  C_21
REMARK    5  A    between atoms: C_23  and  O_30
REMARK    6  A    between atoms: O_33  and  C_34
REMARK    7  A    between atoms: C_36  and  N_41
REMARK    8  A    between atoms: C_53  and  C_54
REMARK    9  A    between atoms: C_57  and  C_58
REMARK   10  A    between atoms: C_57  and  C_63
REMARK   11  A    between atoms: C_58  and  C_59
REMARK                            x       y       z     vdW  Elec       q    Type
REMARK                         _______ _______ _______ _____ _____    ______ ____
ROOT
ATOM      1  C   UNL     1      45.616  78.447  41.218  0.00  0.00    +0.365 C 
ATOM      2  O   UNL     1      44.858  79.447  41.182  0.00  0.00    -0.246 OA
ATOM      3  O   UNL     1      46.962  78.691  41.527  0.00  0.00    -0.246 OA
ENDROOT
BRANCH   1   5
ATOM      4  C   UNL     1      46.140  76.025  40.954  0.00  0.00    +0.012 C 
ATOM      5  C   UNL     1      45.060  77.088  40.938  0.00  0.00    +0.114 C 
ENDBRANCH   1   5
TORSDOF 1
REMARK  Name = Rv-11
REMARK  11 active torsions:
REMARK  status: ('A' for Active; 'I' for Inactive)
REMARK    1  A    between atoms: C_2  and  C_3
REMARK    2  A    between atoms: C_12  and  O_33
REMARK    3  A    between atoms: C_14  and  O_20
REMARK    4  A    between atoms: O_20  and  C_21
REMARK    5  A    between atoms: C_23  and  O_30
REMARK    6  A    between atoms: O_33  and  C_34
REMARK    7  A    between atoms: C_36  and  N_41
REMARK    8  A    between atoms: C_53  and  C_54
REMARK    9  A    between atoms: C_57  and  C_58
REMARK   10  A    between atoms: C_57  and  C_63
REMARK   11  A    between atoms: C_58  and  C_59
REMARK                            x       y       z     vdW  Elec       q    Type
REMARK                         _______ _______ _______ _____ _____    ______ ____
ROOT
ATOM      1  C   UNL     1      44.831  76.985  41.760  0.00  0.00    +0.172 C 
ATOM      2  S   UNL     1      44.932  77.161  43.562  0.00  0.00    -0.070 S 
ENDROOT
BRANCH   1   3
ATOM      3  C   UNL     1      43.412  76.694  41.417  0.00  0.00    +0.376 C 
ATOM      4  O   UNL     1      43.084  76.098  40.371  0.00  0.00    -0.245 OA
ATOM      5  O   UNL     1      42.366  77.085  42.275  0.00  0.00    -0.245 OA
ENDBRANCH   1   3
BRANCH   1   6
ATOM      6  C   UNL     1      45.184  78.289  41.108  0.00  0.00    +0.137 C 
BRANCH   6   7
ATOM      7  C   UNL     1      44.372  78.592  39.912  0.00  0.00    +0.366 C 
ATOM      8  O   UNL     1      44.567  78.151  38.773  0.00  0.00    -0.246 OA
ATOM      9  O   UNL     1      43.297  79.453  40.106  0.00  0.00    -0.246 OA
ENDBRANCH   6   7
ENDBRANCH   1   6
TORSDOF 3
