REMARK  Name = Safinamide_mesylate
REMARK  7 active torsions:
REMARK  status: ('A' for Active; 'I' for Inactive)
REMARK    1  A    between atoms: C_2  and  C_3
REMARK    2  A    between atoms: C_2  and  N_6
REMARK    3  A    between atoms: N_6  and  C_7
REMARK    4  A    between atoms: C_7  and  C_8
REMARK    5  A    between atoms: C_11  and  O_14
REMARK    6  A    between atoms: O_14  and  C_15
REMARK    7  A    between atoms: C_15  and  C_16
REMARK                            x       y       z     vdW  Elec       q    Type
REMARK                         _______ _______ _______ _____ _____    ______ ____
ROOT
ATOM      1  C   UNL     1      43.490  79.865  39.761  0.00  0.00    -0.005 A 
ATOM      2  C   UNL     1      43.997  79.379  40.938  0.00  0.00    +0.000 A 
ATOM      3  C   UNL     1      45.173  79.873  41.497  0.00  0.00    +0.037 A 
ATOM      4  C   UNL     1      45.811  80.882  40.807  0.00  0.00    +0.139 A 
ATOM      5  C   UNL     1      45.307  81.374  39.625  0.00  0.00    +0.037 A 
ATOM      6  C   UNL     1      44.129  80.872  39.075  0.00  0.00    +0.000 A 
ENDROOT
BRANCH   1   7
ATOM      7  C   UNL     1      42.232  79.282  39.236  0.00  0.00    +0.115 C 
BRANCH   7   8
ATOM      8  N   UNL     1      42.532  78.191  38.392  0.00  0.00    -0.205 NA
BRANCH   8  10
ATOM      9  C   UNL     1      41.631  77.167  36.344  0.00  0.00    +0.029 C 
ATOM     10  C   UNL     1      41.445  77.509  37.800  0.00  0.00    +0.152 C 
BRANCH  10  11
ATOM     11  C   UNL     1      41.023  76.330  38.598  0.00  0.00    +0.277 C 
ATOM     12  O   UNL     1      41.866  75.636  39.201  0.00  0.00    -0.270 OA
ATOM     13  N   UNL     1      39.660  75.954  38.703  0.00  0.00    -0.087 NA
ENDBRANCH  10  11
ENDBRANCH   8  10
ENDBRANCH   7   8
ENDBRANCH   1   7
BRANCH   4  14
ATOM     14  O   UNL     1      46.985  81.395  41.339  0.00  0.00    -0.471 OA
BRANCH  14  15
ATOM     15  C   UNL     1      47.684  82.429  40.680  0.00  0.00    +0.232 C 
BRANCH  15  16
ATOM     16  C   UNL     1      48.893  82.774  41.474  0.00  0.00    +0.023 A 
ATOM     17  C   UNL     1      48.857  83.743  42.457  0.00  0.00    +0.029 A 
ATOM     18  C   UNL     1      50.008  84.031  43.172  0.00  0.00    +0.140 A 
ATOM     19  C   UNL     1      51.182  83.361  42.910  0.00  0.00    +0.030 A 
ATOM     20  C   UNL     1      51.236  82.391  41.931  0.00  0.00    +0.002 A 
ATOM     21  C   UNL     1      50.072  82.111  41.221  0.00  0.00    -0.001 A 
ATOM     22  F   UNL     1      49.970  84.980  44.135  0.00  0.00    -0.204 F 
ENDBRANCH  15  16
ENDBRANCH  14  15
ENDBRANCH   4  14
TORSDOF 7
REMARK  Name = Safinamide_mesylate
REMARK  7 active torsions:
REMARK  status: ('A' for Active; 'I' for Inactive)
REMARK    1  A    between atoms: C_2  and  C_3
REMARK    2  A    between atoms: C_2  and  N_6
REMARK    3  A    between atoms: N_6  and  C_7
REMARK    4  A    between atoms: C_7  and  C_8
REMARK    5  A    between atoms: C_11  and  O_14
REMARK    6  A    between atoms: O_14  and  C_15
REMARK    7  A    between atoms: C_15  and  C_16
REMARK                            x       y       z     vdW  Elec       q    Type
REMARK                         _______ _______ _______ _____ _____    ______ ____
ROOT
ATOM      1  C   UNL     1      44.354  79.569  39.585  0.00  0.00    +0.213 C 
ATOM      2  S   UNL     1      45.412  80.976  39.751  0.00  0.00    +0.123 S 
ATOM      3  O   UNL     1      44.708  82.209  39.241  0.00  0.00    -0.144 OA
ATOM      4  O   UNL     1      46.636  80.790  38.910  0.00  0.00    -0.144 OA
ATOM      5  O   UNL     1      45.872  81.211  41.358  0.00  0.00    -0.047 OA
ENDROOT
TORSDOF 0
