REMARK  Name = Salbutamol
REMARK  5 active torsions:
REMARK  status: ('A' for Active; 'I' for Inactive)
REMARK    1  A    between atoms: C_2  and  N_5
REMARK    2  A    between atoms: N_5  and  C_6
REMARK    3  A    between atoms: C_6  and  C_7
REMARK    4  A    between atoms: C_7  and  C_8
REMARK    5  A    between atoms: C_10  and  C_15
REMARK                            x       y       z     vdW  Elec       q    Type
REMARK                         _______ _______ _______ _____ _____    ______ ____
ROOT
ATOM      1  C   UNL     1      47.027  81.456  40.818  0.00  0.00    +0.009 A 
ATOM      2  C   UNL     1      46.113  80.413  40.652  0.00  0.00    -0.000 A 
ATOM      3  C   UNL     1      45.255  80.358  39.577  0.00  0.00    +0.049 A 
ATOM      4  C   UNL     1      45.303  81.358  38.645  0.00  0.00    +0.194 A 
ATOM      5  C   UNL     1      46.200  82.380  38.809  0.00  0.00    +0.042 A 
ATOM      6  C   UNL     1      47.067  82.442  39.889  0.00  0.00    +0.001 A 
ATOM      7  O   UNL     1      44.435  81.299  37.561  0.00  0.00    -0.287 OA
ENDROOT
BRANCH   1   8
ATOM      8  C   UNL     1      47.874  81.350  42.029  0.00  0.00    +0.192 C 
ATOM      9  O   UNL     1      48.628  80.166  41.825  0.00  0.00    -0.217 OA
BRANCH   8  10
ATOM     10  C   UNL     1      48.750  82.519  42.299  0.00  0.00    +0.126 C 
BRANCH  10  11
ATOM     11  N   UNL     1      49.797  82.271  43.228  0.00  0.00    -0.218 NA
BRANCH  11  13
ATOM     12  C   UNL     1      51.533  83.047  44.688  0.00  0.00    +0.017 C 
ATOM     13  C   UNL     1      50.672  83.368  43.466  0.00  0.00    +0.060 C 
ATOM     14  C   UNL     1      49.892  84.620  43.769  0.00  0.00    +0.017 C 
ATOM     15  C   UNL     1      51.630  83.637  42.330  0.00  0.00    +0.017 C 
ENDBRANCH  11  13
ENDBRANCH  10  11
ENDBRANCH   8  10
ENDBRANCH   1   8
BRANCH   3  16
ATOM     16  C   UNL     1      44.311  79.212  39.476  0.00  0.00    +0.212 C 
ATOM     17  O   UNL     1      44.598  78.221  40.419  0.00  0.00    -0.215 OA
ENDBRANCH   3  16
TORSDOF 5
