REMARK  Name = Salicyclic_acid
REMARK  1 active torsions:
REMARK  status: ('A' for Active; 'I' for Inactive)
REMARK    1  A    between atoms: C_5  and  C_7
REMARK                            x       y       z     vdW  Elec       q    Type
REMARK                         _______ _______ _______ _____ _____    ______ ____
ROOT
ATOM      1  C   UNL     1      47.462  80.958  41.614  0.00  0.00    +0.000 A 
ATOM      2  C   UNL     1      48.014  82.145  41.183  0.00  0.00    +0.003 A 
ATOM      3  C   UNL     1      47.472  82.721  40.052  0.00  0.00    +0.042 A 
ATOM      4  C   UNL     1      46.412  82.126  39.378  0.00  0.00    +0.202 A 
ATOM      5  C   UNL     1      45.874  80.940  39.825  0.00  0.00    +0.119 A 
ATOM      6  C   UNL     1      46.404  80.350  40.953  0.00  0.00    +0.010 A 
ATOM      7  O   UNL     1      45.870  82.712  38.239  0.00  0.00    -0.286 OA
ENDROOT
BRANCH   5   8
ATOM      8  C   UNL     1      44.762  80.304  39.127  0.00  0.00    +0.391 C 
ATOM      9  O   UNL     1      44.190  80.893  38.164  0.00  0.00    -0.240 OA
ATOM     10  O   UNL     1      44.284  79.048  39.478  0.00  0.00    -0.240 OA
ENDBRANCH   5   8
TORSDOF 1
