REMARK  Name = Salicin
REMARK  4 active torsions:
REMARK  status: ('A' for Active; 'I' for Inactive)
REMARK    1  A    between atoms: C_4  and  O_9
REMARK    2  A    between atoms: C_5  and  C_7
REMARK    3  A    between atoms: O_9  and  C_10
REMARK    4  A    between atoms: C_14  and  C_16
REMARK                            x       y       z     vdW  Elec       q    Type
REMARK                         _______ _______ _______ _____ _____    ______ ____
ROOT
ATOM      1  C   UNL     1      48.691  81.603  41.879  0.00  0.00    +0.322 C 
ATOM      2  C   UNL     1      50.154  81.786  41.594  0.00  0.00    +0.254 C 
ATOM      3  C   UNL     1      50.827  82.851  42.383  0.00  0.00    +0.221 C 
ATOM      4  C   UNL     1      49.761  83.586  43.166  0.00  0.00    +0.215 C 
ATOM      5  C   UNL     1      48.696  83.905  42.108  0.00  0.00    +0.185 C 
ATOM      6  O   UNL     1      47.966  82.776  41.908  0.00  0.00    -0.316 OA
ATOM      7  O   UNL     1      50.242  84.739  43.769  0.00  0.00    -0.218 OA
ATOM      8  O   UNL     1      51.828  82.396  43.228  0.00  0.00    -0.217 OA
ATOM      9  O   UNL     1      50.361  81.932  40.228  0.00  0.00    -0.213 OA
ENDROOT
BRANCH   5  10
ATOM     10  C   UNL     1      47.929  85.091  42.575  0.00  0.00    +0.214 C 
ATOM     11  O   UNL     1      47.332  84.745  43.808  0.00  0.00    -0.218 OA
ENDBRANCH   5  10
BRANCH   1  12
ATOM     12  O   UNL     1      48.163  80.806  40.882  0.00  0.00    -0.451 OA
BRANCH  12  16
ATOM     13  C   UNL     1      44.254  79.529  40.448  0.00  0.00    -0.000 A 
ATOM     14  C   UNL     1      45.069  78.915  41.348  0.00  0.00    +0.003 A 
ATOM     15  C   UNL     1      46.376  79.351  41.485  0.00  0.00    +0.037 A 
ATOM     16  C   UNL     1      46.879  80.387  40.739  0.00  0.00    +0.140 A 
ATOM     17  C   UNL     1      46.011  80.988  39.829  0.00  0.00    +0.045 A 
ATOM     18  C   UNL     1      44.725  80.573  39.682  0.00  0.00    +0.001 A 
BRANCH  17  19
ATOM     19  C   UNL     1      46.581  82.108  39.033  0.00  0.00    +0.212 C 
ATOM     20  O   UNL     1      45.546  82.682  38.302  0.00  0.00    -0.215 OA
ENDBRANCH  17  19
ENDBRANCH  12  16
ENDBRANCH   1  12
TORSDOF 4
