REMARK  Name = Salmeterol
REMARK  16 active torsions:
REMARK  status: ('A' for Active; 'I' for Inactive)
REMARK    1  A    between atoms: C_4  and  C_7
REMARK    2  A    between atoms: C_7  and  C_8
REMARK    3  A    between atoms: C_8  and  C_9
REMARK    4  A    between atoms: C_9  and  C_10
REMARK    5  A    between atoms: C_10  and  O_11
REMARK    6  A    between atoms: O_11  and  C_12
REMARK    7  A    between atoms: C_12  and  C_13
REMARK    8  A    between atoms: C_13  and  C_14
REMARK    9  A    between atoms: C_14  and  C_15
REMARK   10  A    between atoms: C_15  and  C_16
REMARK   11  A    between atoms: C_16  and  C_17
REMARK   12  A    between atoms: C_17  and  N_18
REMARK   13  A    between atoms: N_18  and  C_19
REMARK   14  A    between atoms: C_19  and  C_20
REMARK   15  A    between atoms: C_20  and  C_21
REMARK   16  A    between atoms: C_23  and  C_28
REMARK                            x       y       z     vdW  Elec       q    Type
REMARK                         _______ _______ _______ _____ _____    ______ ____
ROOT
ATOM      1  C   UNL     1      42.309  77.626  39.334  0.00  0.00    +0.002 C 
ENDROOT
BRANCH   1   2
ATOM      2  C   UNL     1      43.699  78.087  38.986  0.00  0.00    +0.003 C 
BRANCH   2   3
ATOM      3  C   UNL     1      44.084  79.207  39.938  0.00  0.00    +0.032 C 
BRANCH   3   4
ATOM      4  C   UNL     1      45.536  79.612  39.647  0.00  0.00    +0.142 C 
BRANCH   4   5
ATOM      5  O   UNL     1      45.900  80.582  40.546  0.00  0.00    -0.354 OA
BRANCH   5   6
ATOM      6  C   UNL     1      47.235  80.866  40.577  0.00  0.00    +0.142 C 
BRANCH   6   7
ATOM      7  C   UNL     1      47.548  82.100  41.362  0.00  0.00    +0.032 C 
BRANCH   7   8
ATOM      8  C   UNL     1      48.661  81.904  42.336  0.00  0.00    +0.007 C 
BRANCH   8   9
ATOM      9  C   UNL     1      50.036  82.126  41.815  0.00  0.00    +0.026 C 
BRANCH   9  13
ATOM     10  C   UNL     1      52.612  84.329  44.389  0.00  0.00    -0.000 A 
ATOM     11  C   UNL     1      51.278  84.240  44.687  0.00  0.00    -0.000 A 
ATOM     12  C   UNL     1      50.444  83.523  43.845  0.00  0.00    -0.004 A 
ATOM     13  C   UNL     1      50.916  82.898  42.720  0.00  0.00    -0.022 A 
ATOM     14  C   UNL     1      52.287  83.015  42.451  0.00  0.00    -0.004 A 
ATOM     15  C   UNL     1      53.115  83.712  43.264  0.00  0.00    -0.000 A 
ENDBRANCH   9  13
ENDBRANCH   8   9
ENDBRANCH   7   8
ENDBRANCH   6   7
ENDBRANCH   5   6
ENDBRANCH   4   5
ENDBRANCH   3   4
ENDBRANCH   2   3
ENDBRANCH   1   2
BRANCH   1  16
ATOM     16  C   UNL     1      41.253  78.519  38.711  0.00  0.00    +0.019 C 
BRANCH  16  17
ATOM     17  C   UNL     1      41.064  78.163  37.254  0.00  0.00    +0.089 C 
BRANCH  17  18
ATOM     18  N   UNL     1      40.899  76.795  36.995  0.00  0.00    -0.215 NA
BRANCH  18  19
ATOM     19  C   UNL     1      39.674  76.281  36.555  0.00  0.00    +0.126 C 
BRANCH  19  20
ATOM     20  C   UNL     1      39.724  74.812  36.301  0.00  0.00    +0.192 C 
ATOM     21  O   UNL     1      39.613  74.134  37.506  0.00  0.00    -0.217 OA
BRANCH  20  22
ATOM     22  C   UNL     1      38.569  74.347  35.465  0.00  0.00    +0.009 A 
ATOM     23  C   UNL     1      37.300  74.857  35.567  0.00  0.00    -0.000 A 
ATOM     24  C   UNL     1      36.285  74.362  34.744  0.00  0.00    +0.049 A 
ATOM     25  C   UNL     1      36.508  73.365  33.818  0.00  0.00    +0.194 A 
ATOM     26  C   UNL     1      37.786  72.858  33.722  0.00  0.00    +0.042 A 
ATOM     27  C   UNL     1      38.788  73.347  34.534  0.00  0.00    +0.001 A 
ATOM     28  O   UNL     1      35.450  72.928  33.040  0.00  0.00    -0.287 OA
BRANCH  24  29
ATOM     29  C   UNL     1      34.913  74.926  34.868  0.00  0.00    +0.212 C 
ATOM     30  O   UNL     1      34.798  76.132  34.206  0.00  0.00    -0.215 OA
ENDBRANCH  24  29
ENDBRANCH  20  22
ENDBRANCH  19  20
ENDBRANCH  18  19
ENDBRANCH  17  18
ENDBRANCH  16  17
ENDBRANCH   1  16
TORSDOF 16
