REMARK  Name = Salsalate
REMARK  4 active torsions:
REMARK  status: ('A' for Active; 'I' for Inactive)
REMARK    1  A    between atoms: C_5  and  C_7
REMARK    2  A    between atoms: C_7  and  O_9
REMARK    3  A    between atoms: O_9  and  C_10
REMARK    4  A    between atoms: C_15  and  C_16
REMARK                            x       y       z     vdW  Elec       q    Type
REMARK                         _______ _______ _______ _____ _____    ______ ____
ROOT
ATOM      1  O   UNL     1      44.387  79.158  40.032  0.00  0.00    -0.421 OA
ENDROOT
BRANCH   1   2
ATOM      2  C   UNL     1      43.366  78.461  39.401  0.00  0.00    +0.155 A 
ATOM      3  C   UNL     1      42.630  78.996  38.354  0.00  0.00    +0.038 A 
ATOM      4  C   UNL     1      41.620  78.266  37.754  0.00  0.00    +0.003 A 
ATOM      5  C   UNL     1      41.341  76.989  38.203  0.00  0.00    +0.000 A 
ATOM      6  C   UNL     1      42.086  76.453  39.259  0.00  0.00    +0.010 A 
ATOM      7  C   UNL     1      43.092  77.180  39.858  0.00  0.00    +0.114 A 
BRANCH   7   8
ATOM      8  C   UNL     1      43.861  76.633  40.946  0.00  0.00    +0.391 C 
ATOM      9  O   UNL     1      43.998  75.390  41.031  0.00  0.00    -0.240 OA
ATOM     10  O   UNL     1      44.471  77.404  41.923  0.00  0.00    -0.240 OA
ENDBRANCH   7   8
ENDBRANCH   1   2
BRANCH   1  11
ATOM     11  C   UNL     1      44.947  80.278  39.432  0.00  0.00    +0.349 C 
ATOM     12  O   UNL     1      44.388  80.699  38.382  0.00  0.00    -0.244 OA
BRANCH  11  17
ATOM     13  C   UNL     1      47.794  81.158  41.615  0.00  0.00    +0.000 A 
ATOM     14  C   UNL     1      48.352  82.254  40.964  0.00  0.00    +0.003 A 
ATOM     15  C   UNL     1      47.754  82.678  39.794  0.00  0.00    +0.042 A 
ATOM     16  C   UNL     1      46.641  82.038  39.286  0.00  0.00    +0.202 A 
ATOM     17  C   UNL     1      46.115  80.956  39.957  0.00  0.00    +0.115 A 
ATOM     18  C   UNL     1      46.681  80.500  41.129  0.00  0.00    +0.010 A 
ATOM     19  O   UNL     1      46.052  82.485  38.100  0.00  0.00    -0.286 OA
ENDBRANCH  11  17
ENDBRANCH   1  11
TORSDOF 4
