REMARK  Name = Sanguinarine
REMARK  0 active torsions:
REMARK  status: ('A' for Active; 'I' for Inactive)
REMARK                            x       y       z     vdW  Elec       q    Type
REMARK                         _______ _______ _______ _____ _____    ______ ____
ROOT
ATOM      1  C   UNL     1      46.033  78.334  42.257  0.00  0.00    +0.130 C 
ATOM      2  N   UNL     1      46.656  79.427  41.591  0.00  0.00    -0.324 N 
ATOM      3  C   UNL     1      46.206  80.056  40.509  0.00  0.00    +0.060 A 
ATOM      4  C   UNL     1      46.848  81.196  39.975  0.00  0.00    +0.016 A 
ATOM      5  C   UNL     1      47.997  81.674  40.602  0.00  0.00    +0.006 A 
ATOM      6  C   UNL     1      48.628  82.775  40.093  0.00  0.00    +0.003 A 
ATOM      7  C   UNL     1      49.786  83.223  40.756  0.00  0.00    +0.040 A 
ATOM      8  C   UNL     1      50.265  82.579  41.872  0.00  0.00    +0.176 A 
ATOM      9  C   UNL     1      49.593  81.463  42.357  0.00  0.00    +0.178 A 
ATOM     10  C   UNL     1      48.467  81.025  41.715  0.00  0.00    +0.054 A 
ATOM     11  C   UNL     1      47.803  79.953  42.163  0.00  0.00    +0.079 A 
ATOM     12  O   UNL     1      50.315  81.038  43.486  0.00  0.00    -0.435 OA
ATOM     13  C   UNL     1      51.217  82.046  43.892  0.00  0.00    +0.429 C 
ATOM     14  O   UNL     1      51.355  82.798  42.702  0.00  0.00    -0.435 OA
ATOM     15  C   UNL     1      46.359  81.845  38.869  0.00  0.00    +0.001 A 
ATOM     16  C   UNL     1      45.235  81.387  38.264  0.00  0.00    +0.000 A 
ATOM     17  C   UNL     1      44.577  80.289  38.731  0.00  0.00    +0.005 A 
ATOM     18  C   UNL     1      43.450  79.828  38.077  0.00  0.00    +0.040 A 
ATOM     19  C   UNL     1      42.798  78.711  38.516  0.00  0.00    +0.176 A 
ATOM     20  C   UNL     1      43.267  78.048  39.607  0.00  0.00    +0.176 A 
ATOM     21  C   UNL     1      44.408  78.490  40.295  0.00  0.00    +0.042 A 
ATOM     22  C   UNL     1      45.056  79.602  39.864  0.00  0.00    +0.019 A 
ATOM     23  O   UNL     1      42.443  76.968  39.840  0.00  0.00    -0.435 OA
ATOM     24  C   UNL     1      41.351  77.053  38.936  0.00  0.00    +0.429 C 
ATOM     25  O   UNL     1      41.658  78.067  38.028  0.00  0.00    -0.435 OA
ENDROOT
TORSDOF 0
