REMARK  Name = Santonin
REMARK  0 active torsions:
REMARK  status: ('A' for Active; 'I' for Inactive)
REMARK                            x       y       z     vdW  Elec       q    Type
REMARK                         _______ _______ _______ _____ _____    ______ ____
ROOT
ATOM      1  C   UNL     1      50.579  81.824  41.450  0.00  0.00    +0.012 C 
ATOM      2  C   UNL     1      49.118  82.029  41.699  0.00  0.00    +0.103 C 
ATOM      3  C   UNL     1      48.262  81.662  40.487  0.00  0.00    +0.055 C 
ATOM      4  C   UNL     1      47.299  82.763  40.262  0.00  0.00    +0.005 C 
ATOM      5  C   UNL     1      45.955  82.393  39.744  0.00  0.00    +0.008 C 
ATOM      6  C   UNL     1      45.960  80.985  39.129  0.00  0.00    +0.037 C 
ATOM      7  C   UNL     1      44.639  80.689  38.555  0.00  0.00    -0.020 C 
ATOM      8  C   UNL     1      43.841  79.725  38.966  0.00  0.00    +0.037 C 
ATOM      9  C   UNL     1      44.276  78.893  40.052  0.00  0.00    +0.191 C 
ATOM     10  O   UNL     1      43.551  77.955  40.484  0.00  0.00    -0.287 OA
ATOM     11  C   UNL     1      45.575  79.126  40.674  0.00  0.00    +0.013 C 
ATOM     12  C   UNL     1      46.349  80.095  40.243  0.00  0.00    -0.003 C 
ATOM     13  C   UNL     1      47.668  80.345  40.868  0.00  0.00    +0.188 C 
ATOM     14  O   UNL     1      47.588  80.439  42.273  0.00  0.00    -0.448 OA
ATOM     15  C   UNL     1      48.695  81.079  42.755  0.00  0.00    +0.317 C 
ATOM     16  O   UNL     1      49.254  80.916  43.858  0.00  0.00    -0.250 OA
ATOM     17  C   UNL     1      45.993  78.232  41.810  0.00  0.00    +0.034 C 
ATOM     18  C   UNL     1      46.960  80.969  37.997  0.00  0.00    +0.009 C 
ENDROOT
TORSDOF 0
