REMARK  Name = Sapropterin_hydrochloride
REMARK  2 active torsions:
REMARK  status: ('A' for Active; 'I' for Inactive)
REMARK    1  A    between atoms: C_2  and  C_3
REMARK    2  A    between atoms: C_3  and  C_4
REMARK                            x       y       z     vdW  Elec       q    Type
REMARK                         _______ _______ _______ _____ _____    ______ ____
ROOT
ATOM      1  C   UNL     1      48.157  82.150  40.643  0.00  0.00    +0.147 C 
ATOM      2  C   UNL     1      47.523  83.245  39.840  0.00  0.00    +0.138 C 
ATOM      3  N   UNL     1      46.566  82.607  38.947  0.00  0.00    -0.217 NA
ATOM      4  C   UNL     1      45.851  81.451  39.258  0.00  0.00    +0.170 A 
ATOM      5  C   UNL     1      46.143  80.752  40.415  0.00  0.00    +0.157 A 
ATOM      6  N   UNL     1      47.182  81.266  41.239  0.00  0.00    -0.228 NA
ATOM      7  C   UNL     1      45.448  79.601  40.748  0.00  0.00    +0.299 A 
ATOM      8  O   UNL     1      45.736  78.996  41.796  0.00  0.00    -0.264 OA
ATOM      9  N   UNL     1      44.476  79.135  39.961  0.00  0.00    -0.171 NA
ATOM     10  C   UNL     1      44.199  79.832  38.826  0.00  0.00    +0.260 A 
ATOM     11  N   UNL     1      44.874  80.963  38.489  0.00  0.00    -0.193 NA
ATOM     12  N   UNL     1      43.175  79.375  37.960  0.00  0.00    -0.086 NA
ENDROOT
BRANCH   1  13
ATOM     13  C   UNL     1      49.173  82.589  41.640  0.00  0.00    +0.203 C 
ATOM     14  O   UNL     1      50.127  83.435  41.127  0.00  0.00    -0.219 OA
BRANCH  13  16
ATOM     15  C   UNL     1      48.098  84.575  42.752  0.00  0.00    +0.038 C 
ATOM     16  C   UNL     1      48.623  83.160  42.913  0.00  0.00    +0.184 C 
ATOM     17  O   UNL     1      49.724  83.277  43.796  0.00  0.00    -0.220 OA
ENDBRANCH  13  16
ENDBRANCH   1  13
TORSDOF 2
REMARK  Name = Sapropterin_hydrochloride
REMARK  2 active torsions:
REMARK  status: ('A' for Active; 'I' for Inactive)
REMARK    1  A    between atoms: C_2  and  C_3
REMARK    2  A    between atoms: C_3  and  C_4
REMARK                            x       y       z     vdW  Elec       q    Type
REMARK                         _______ _______ _______ _____ _____    ______ ____
ROOT
ATOM      1 CL   UNL     1      46.430  81.593  40.525  0.00  0.00    +0.000 Cl
ENDROOT
TORSDOF 0
REMARK  Name = Sapropterin_hydrochloride
REMARK  2 active torsions:
REMARK  status: ('A' for Active; 'I' for Inactive)
REMARK    1  A    between atoms: C_2  and  C_3
REMARK    2  A    between atoms: C_3  and  C_4
REMARK                            x       y       z     vdW  Elec       q    Type
REMARK                         _______ _______ _______ _____ _____    ______ ____
ROOT
ATOM      1 CL   UNL     1      46.424  81.588  40.521  0.00  0.00    +0.000 Cl
ENDROOT
TORSDOF 0
