REMARK  Name = Saprisartan
REMARK  9 active torsions:
REMARK  status: ('A' for Active; 'I' for Inactive)
REMARK    1  A    between atoms: C_2  and  C_3
REMARK    2  A    between atoms: C_5  and  C_36
REMARK    3  A    between atoms: C_6  and  C_33
REMARK    4  A    between atoms: N_7  and  C_8
REMARK    5  A    between atoms: C_8  and  C_9
REMARK    6  A    between atoms: C_16  and  C_19
REMARK    7  A    between atoms: C_24  and  N_25
REMARK    8  A    between atoms: N_25  and  S_26
REMARK    9  A    between atoms: S_26  and  C_29
REMARK                            x       y       z     vdW  Elec       q    Type
REMARK                         _______ _______ _______ _____ _____    ______ ____
ROOT
ATOM      1  C   UNL     1      44.077  78.633  39.304  0.00  0.00    +0.001 A 
ATOM      2  C   UNL     1      44.748  79.842  39.045  0.00  0.00    +0.001 A 
ATOM      3  C   UNL     1      45.502  80.490  39.985  0.00  0.00    +0.043 A 
ATOM      4  C   UNL     1      45.599  79.926  41.224  0.00  0.00    +0.146 A 
ATOM      5  C   UNL     1      44.936  78.717  41.502  0.00  0.00    +0.037 A 
ATOM      6  C   UNL     1      44.182  78.078  40.548  0.00  0.00    +0.001 A 
ATOM      7  O   UNL     1      46.349  80.698  41.937  0.00  0.00    -0.453 OA
ATOM      8  C   UNL     1      46.793  81.788  41.269  0.00  0.00    +0.153 A 
ATOM      9  C   UNL     1      46.267  81.662  40.039  0.00  0.00    +0.072 A 
ATOM     10 BR   UNL     1      46.566  82.764  38.516  0.00  0.00    -0.046 Br
ENDROOT
BRANCH   8  11
ATOM     11  C   UNL     1      47.659  82.746  41.952  0.00  0.00    +0.052 A 
ATOM     12  C   UNL     1      47.015  83.859  42.567  0.00  0.00    +0.004 A 
ATOM     13  C   UNL     1      47.720  84.879  43.140  0.00  0.00    +0.000 A 
ATOM     14  C   UNL     1      49.092  84.871  43.145  0.00  0.00    +0.001 A 
ATOM     15  C   UNL     1      49.718  83.802  42.552  0.00  0.00    +0.018 A 
ATOM     16  C   UNL     1      49.000  82.729  41.951  0.00  0.00    +0.094 A 
BRANCH  16  17
ATOM     17  N   UNL     1      49.756  81.743  41.283  0.00  0.00    -0.093 NA
BRANCH  17  18
ATOM     18  S   UNL     1      50.805  80.707  42.122  0.00  0.00    +0.160 S 
ATOM     19  O   UNL     1      50.515  80.800  43.627  0.00  0.00    -0.145 OA
ATOM     20  O   UNL     1      52.250  81.168  42.005  0.00  0.00    -0.145 OA
BRANCH  18  21
ATOM     21  C   UNL     1      50.693  78.987  41.754  0.00  0.00    +0.540 C 
ATOM     22  F   UNL     1      49.410  78.568  41.906  0.00  0.00    -0.149 F 
ATOM     23  F   UNL     1      51.653  78.286  42.407  0.00  0.00    -0.149 F 
ATOM     24  F   UNL     1      50.947  78.902  40.353  0.00  0.00    -0.149 F 
ENDBRANCH  18  21
ENDBRANCH  17  18
ENDBRANCH  16  17
ENDBRANCH   8  11
BRANCH   1  25
ATOM     25  C   UNL     1      43.279  78.005  38.238  0.00  0.00    +0.134 C 
BRANCH  25  30
ATOM     26  C   UNL     1      40.926  77.153  38.453  0.00  0.00    +0.120 A 
ATOM     27  N   UNL     1      40.291  76.145  39.066  0.00  0.00    -0.235 NA
ATOM     28  C   UNL     1      41.212  75.385  39.723  0.00  0.00    +0.080 A 
ATOM     29  C   UNL     1      42.420  75.986  39.474  0.00  0.00    +0.132 A 
ATOM     30  N   UNL     1      42.264  77.085  38.689  0.00  0.00    -0.307 N 
BRANCH  29  31
ATOM     31  C   UNL     1      43.689  75.488  40.027  0.00  0.00    +0.301 C 
ATOM     32  O   UNL     1      44.778  76.127  39.880  0.00  0.00    -0.265 OA
ATOM     33  N   UNL     1      43.766  74.286  40.749  0.00  0.00    -0.082 NA
ENDBRANCH  29  31
BRANCH  28  34
ATOM     34  C   UNL     1      40.931  74.144  40.488  0.00  0.00    +0.042 C 
ATOM     35  C   UNL     1      39.531  73.680  40.662  0.00  0.00    +0.006 C 
ATOM     36  C   UNL     1      40.349  72.981  39.638  0.00  0.00    +0.006 C 
ENDBRANCH  28  34
BRANCH  26  38
ATOM     37  C   UNL     1      39.557  77.493  36.428  0.00  0.00    +0.008 C 
ATOM     38  C   UNL     1      40.230  78.182  37.622  0.00  0.00    +0.064 C 
ENDBRANCH  26  38
ENDBRANCH  25  30
ENDBRANCH   1  25
TORSDOF 9
