REMARK  Name = Saralasin_Acetate
REMARK  25 active torsions:
REMARK  status: ('A' for Active; 'I' for Inactive)
REMARK    1  A    between atoms: CB_2  and  CA_4
REMARK    2  A    between atoms: CA_4  and  C_5
REMARK    3  A    between atoms: CA_4  and  N_49
REMARK    4  A    between atoms: N_7  and  CA_8
REMARK    5  A    between atoms: CA_8  and  CB_9
REMARK    6  A    between atoms: CA_8  and  C_17
REMARK    7  A    between atoms: CB_9  and  CG_10
REMARK    8  A    between atoms: N_19  and  CA_20
REMARK    9  A    between atoms: CA_20  and  CB_21
REMARK   10  A    between atoms: CA_20  and  C_24
REMARK   11  A    between atoms: N_26  and  CA_27
REMARK   12  A    between atoms: CA_27  and  CB_28
REMARK   13  A    between atoms: CA_27  and  C_34
REMARK   14  A    between atoms: CB_28  and  CG_29
REMARK   15  A    between atoms: CA_40  and  C_41
REMARK   16  A    between atoms: N_43  and  CA_44
REMARK   17  A    between atoms: CA_44  and  C_46
REMARK   18  A    between atoms: C_50  and  CA_52
REMARK   19  A    between atoms: CA_52  and  CB_53
REMARK   20  A    between atoms: CA_52  and  N_60
REMARK   21  A    between atoms: CB_53  and  CG_54
REMARK   22  A    between atoms: CG_54  and  CD_55
REMARK   23  A    between atoms: CD_55  and  NE_56
REMARK   24  A    between atoms: C_61  and  C_63
REMARK   25  A    between atoms: C_63  and  N_64
REMARK                            x       y       z     vdW  Elec       q    Type
REMARK                         _______ _______ _______ _____ _____    ______ ____
ROOT
ATOM      1  CA  ARG A   1      43.017  78.044  39.990  0.00  0.00    +0.177 C 
ENDROOT
BRANCH   1   4
ATOM      2  C   ARG A   1      44.854  77.668  41.713  0.00  0.00    +0.262 C 
ATOM      3  O   ARG A   1      44.014  78.063  42.560  0.00  0.00    -0.271 OA
ATOM      4  N   ARG A   1      44.385  77.647  40.340  0.00  0.00    -0.196 NA
BRANCH   2   5
ATOM      5  CA  ARG A   1      46.234  77.260  42.019  0.00  0.00    +0.173 C 
BRANCH   5   7
ATOM      6  CG1 ARG A   1      45.456  75.307  43.365  0.00  0.00    +0.002 C 
ATOM      7  CB  ARG A   1      46.333  75.758  42.249  0.00  0.00    +0.029 C 
ATOM      8  CG2 ARG A   1      46.023  74.954  41.016  0.00  0.00    +0.002 C 
ENDBRANCH   5   7
BRANCH   5   9
ATOM      9  N   ARG A   1      46.834  77.981  43.145  0.00  0.00    -0.196 NA
ATOM     10  C   ARG A   1      48.168  78.533  42.947  0.00  0.00    +0.262 C 
ATOM     11  O   ARG A   1      48.649  78.279  41.812  0.00  0.00    -0.271 OA
BRANCH  10  12
ATOM     12  CA  ARG A   1      48.902  79.315  43.947  0.00  0.00    +0.173 C 
BRANCH  12  13
ATOM     13  N   ARG A   1      48.163  80.400  44.487  0.00  0.00    -0.197 NA
ATOM     14  C   UNK A   0      48.520  81.329  45.495  0.00  0.00    +0.259 C 
ATOM     15  O   UNK A   0      49.650  81.242  46.031  0.00  0.00    -0.272 OA
BRANCH  14  16
ATOM     16  C   UNK A   0      47.595  82.414  45.938  0.00  0.00    +0.175 C 
BRANCH  16  17
ATOM     17  N   UNK A   0      46.288  82.326  45.319  0.00  0.00    -0.207 NA
ATOM     18  C   UNK A   0      45.524  83.482  45.824  0.00  0.00    +0.108 C 
ENDBRANCH  16  17
ENDBRANCH  14  16
ENDBRANCH  12  13
BRANCH  12  19
ATOM     19  CB  ARG A   1      50.369  79.424  43.770  0.00  0.00    +0.033 C 
BRANCH  19  20
ATOM     20  CG  ARG A   1      51.191  78.190  43.935  0.00  0.00    +0.029 C 
BRANCH  20  21
ATOM     21  CD  ARG A   1      50.884  77.063  43.052  0.00  0.00    +0.129 C 
BRANCH  21  22
ATOM     22  NE  ARG A   1      51.760  75.951  43.282  0.00  0.00    -0.234 NA
ATOM     23  CZ  ARG A   1      52.556  75.688  44.203  0.00  0.00    +0.284 C 
ATOM     24  NH1 ARG A   1      52.859  76.435  45.359  0.00  0.00    -0.104 NA
ATOM     25  NH2 ARG A   1      53.268  74.435  44.089  0.00  0.00    -0.104 NA
ENDBRANCH  21  22
ENDBRANCH  20  21
ENDBRANCH  19  20
ENDBRANCH  12  19
ENDBRANCH  10  12
ENDBRANCH   5   9
ENDBRANCH   2   5
ENDBRANCH   1   4
BRANCH   1  26
ATOM     26  C   ARG A   1      42.702  77.550  38.672  0.00  0.00    +0.262 C 
ATOM     27  O   ARG A   1      43.673  77.074  37.968  0.00  0.00    -0.271 OA
ATOM     28  N   VAL A   2      41.433  77.508  38.016  0.00  0.00    -0.196 NA
BRANCH  28  29
ATOM     29  CA  VAL A   2      41.326  76.975  36.687  0.00  0.00    +0.173 C 
BRANCH  29  30
ATOM     30  CB  VAL A   2      40.540  77.948  35.816  0.00  0.00    +0.029 C 
ATOM     31  CG1 VAL A   2      39.153  78.154  36.380  0.00  0.00    +0.002 C 
ATOM     32  CG2 VAL A   2      41.261  79.263  35.792  0.00  0.00    +0.002 C 
ENDBRANCH  29  30
BRANCH  29  33
ATOM     33  C   VAL A   2      40.673  75.665  36.569  0.00  0.00    +0.262 C 
ATOM     34  O   VAL A   2      40.554  75.130  35.408  0.00  0.00    -0.271 OA
ATOM     35  N   HIS A   3      40.129  74.877  37.626  0.00  0.00    -0.196 NA
BRANCH  35  36
ATOM     36  CA  HIS A   3      39.525  73.610  37.370  0.00  0.00    +0.177 C 
BRANCH  36  37
ATOM     37  C   HIS A   3      38.101  73.416  37.521  0.00  0.00    +0.246 C 
ATOM     38  O   HIS A   3      37.693  72.227  37.171  0.00  0.00    -0.273 OA
ATOM     39  N   PRO A   4      37.094  74.264  37.969  0.00  0.00    -0.272 N 
ATOM     40  CD  PRO A   4      37.169  75.599  38.492  0.00  0.00    +0.094 C 
ATOM     41  CG  PRO A   4      36.005  75.692  39.481  0.00  0.00    +0.024 C 
ATOM     42  CB  PRO A   4      35.072  74.577  39.148  0.00  0.00    +0.031 C 
ATOM     43  CA  PRO A   4      35.652  73.911  37.951  0.00  0.00    +0.154 C 
BRANCH  43  44
ATOM     44  C   PRO A   4      35.045  74.411  36.690  0.00  0.00    +0.260 C 
ATOM     45  O   PRO A   4      35.772  75.156  35.947  0.00  0.00    -0.272 OA
ATOM     46  N   ALA A   5      33.730  74.118  36.255  0.00  0.00    -0.194 NA
BRANCH  46  47
ATOM     47  CA  ALA A   5      33.198  74.657  34.994  0.00  0.00    +0.198 C 
ATOM     48  CB  ALA A   5      31.921  75.365  35.291  0.00  0.00    +0.036 C 
BRANCH  47  49
ATOM     49  C   ALA A   5      33.076  73.570  33.983  0.00  0.00    +0.384 C 
ATOM     50  O   ALA A   5      33.434  72.416  34.291  0.00  0.00    -0.244 OA
ATOM     51  OXT ALA A   5      32.578  73.837  32.732  0.00  0.00    -0.244 OA
ENDBRANCH  47  49
ENDBRANCH  46  47
ENDBRANCH  43  44
ENDBRANCH  36  37
BRANCH  36  52
ATOM     52  CB  HIS A   3      40.282  72.535  38.170  0.00  0.00    +0.078 C 
BRANCH  52  53
ATOM     53  CG  HIS A   3      40.206  72.873  39.629  0.00  0.00    +0.082 A 
ATOM     54  CD2 HIS A   3      41.030  73.658  40.374  0.00  0.00    +0.115 A 
ATOM     55  NE2 HIS A   3      40.577  73.705  41.643  0.00  0.00    -0.221 NA
ATOM     56  CE1 HIS A   3      39.463  72.942  41.700  0.00  0.00    +0.199 A 
ATOM     57  ND1 HIS A   3      39.243  72.435  40.457  0.00  0.00    -0.227 NA
ENDBRANCH  52  53
ENDBRANCH  36  52
ENDBRANCH  35  36
ENDBRANCH  29  33
ENDBRANCH  28  29
ENDBRANCH   1  26
BRANCH   1  58
ATOM     58  CB  ARG A   1      42.969  79.562  40.163  0.00  0.00    +0.057 C 
BRANCH  58  59
ATOM     59  CG  ARG A   1      43.913  80.306  39.338  0.00  0.00    -0.020 A 
ATOM     60  CD1 ARG A   1      45.237  80.487  39.692  0.00  0.00    -0.001 A 
ATOM     61  CE1 ARG A   1      46.053  81.240  38.855  0.00  0.00    +0.042 A 
ATOM     62  CZ  ARG A   1      45.586  81.805  37.699  0.00  0.00    +0.196 A 
ATOM     63  CE2 ARG A   1      44.272  81.635  37.341  0.00  0.00    +0.042 A 
ATOM     64  CD2 ARG A   1      43.483  80.891  38.172  0.00  0.00    -0.001 A 
ATOM     65  OH  ARG A   1      46.416  82.551  36.874  0.00  0.00    -0.287 OA
ENDBRANCH  58  59
ENDBRANCH   1  58
TORSDOF 25
REMARK  Name = Saralasin_Acetate
REMARK  25 active torsions:
REMARK  status: ('A' for Active; 'I' for Inactive)
REMARK    1  A    between atoms: CB_2  and  CA_4
REMARK    2  A    between atoms: CA_4  and  C_5
REMARK    3  A    between atoms: CA_4  and  N_49
REMARK    4  A    between atoms: N_7  and  CA_8
REMARK    5  A    between atoms: CA_8  and  CB_9
REMARK    6  A    between atoms: CA_8  and  C_17
REMARK    7  A    between atoms: CB_9  and  CG_10
REMARK    8  A    between atoms: N_19  and  CA_20
REMARK    9  A    between atoms: CA_20  and  CB_21
REMARK   10  A    between atoms: CA_20  and  C_24
REMARK   11  A    between atoms: N_26  and  CA_27
REMARK   12  A    between atoms: CA_27  and  CB_28
REMARK   13  A    between atoms: CA_27  and  C_34
REMARK   14  A    between atoms: CB_28  and  CG_29
REMARK   15  A    between atoms: CA_40  and  C_41
REMARK   16  A    between atoms: N_43  and  CA_44
REMARK   17  A    between atoms: CA_44  and  C_46
REMARK   18  A    between atoms: C_50  and  CA_52
REMARK   19  A    between atoms: CA_52  and  CB_53
REMARK   20  A    between atoms: CA_52  and  N_60
REMARK   21  A    between atoms: CB_53  and  CG_54
REMARK   22  A    between atoms: CG_54  and  CD_55
REMARK   23  A    between atoms: CD_55  and  NE_56
REMARK   24  A    between atoms: C_61  and  C_63
REMARK   25  A    between atoms: C_63  and  N_64
REMARK                            x       y       z     vdW  Elec       q    Type
REMARK                         _______ _______ _______ _____ _____    ______ ____
ROOT
ATOM      1  C   UNL     1      43.649  77.477  40.549  0.00  0.00    +0.126 C 
ATOM      2  C   UNL     1      42.532  76.770  39.920  0.00  0.00    +0.365 C 
ATOM      3  O   UNL     1      42.347  75.562  40.219  0.00  0.00    -0.246 OA
ATOM      4  O   UNL     1      41.648  77.325  39.012  0.00  0.00    -0.246 OA
ENDROOT
TORSDOF 0
REMARK  Name = Saralasin_Acetate
REMARK  25 active torsions:
REMARK  status: ('A' for Active; 'I' for Inactive)
REMARK    1  A    between atoms: CB_2  and  CA_4
REMARK    2  A    between atoms: CA_4  and  C_5
REMARK    3  A    between atoms: CA_4  and  N_49
REMARK    4  A    between atoms: N_7  and  CA_8
REMARK    5  A    between atoms: CA_8  and  CB_9
REMARK    6  A    between atoms: CA_8  and  C_17
REMARK    7  A    between atoms: CB_9  and  CG_10
REMARK    8  A    between atoms: N_19  and  CA_20
REMARK    9  A    between atoms: CA_20  and  CB_21
REMARK   10  A    between atoms: CA_20  and  C_24
REMARK   11  A    between atoms: N_26  and  CA_27
REMARK   12  A    between atoms: CA_27  and  CB_28
REMARK   13  A    between atoms: CA_27  and  C_34
REMARK   14  A    between atoms: CB_28  and  CG_29
REMARK   15  A    between atoms: CA_40  and  C_41
REMARK   16  A    between atoms: N_43  and  CA_44
REMARK   17  A    between atoms: CA_44  and  C_46
REMARK   18  A    between atoms: C_50  and  CA_52
REMARK   19  A    between atoms: CA_52  and  CB_53
REMARK   20  A    between atoms: CA_52  and  N_60
REMARK   21  A    between atoms: CB_53  and  CG_54
REMARK   22  A    between atoms: CG_54  and  CD_55
REMARK   23  A    between atoms: CD_55  and  NE_56
REMARK   24  A    between atoms: C_61  and  C_63
REMARK   25  A    between atoms: C_63  and  N_64
REMARK                            x       y       z     vdW  Elec       q    Type
REMARK                         _______ _______ _______ _____ _____    ______ ____
ROOT
ATOM      1  O   HOH     1      42.920  76.783  40.232  0.00  0.00    +0.000 OA
ENDROOT
TORSDOF 0
