REMARK  Name = SARALASIN
REMARK  25 active torsions:
REMARK  status: ('A' for Active; 'I' for Inactive)
REMARK    1  A    between atoms: CB_2  and  CA_4
REMARK    2  A    between atoms: CA_4  and  C_5
REMARK    3  A    between atoms: CA_4  and  N_49
REMARK    4  A    between atoms: N_7  and  CA_8
REMARK    5  A    between atoms: CA_8  and  CB_9
REMARK    6  A    between atoms: CA_8  and  C_17
REMARK    7  A    between atoms: CB_9  and  CG_10
REMARK    8  A    between atoms: N_19  and  CA_20
REMARK    9  A    between atoms: CA_20  and  CB_21
REMARK   10  A    between atoms: CA_20  and  C_24
REMARK   11  A    between atoms: N_26  and  CA_27
REMARK   12  A    between atoms: CA_27  and  CB_28
REMARK   13  A    between atoms: CA_27  and  C_34
REMARK   14  A    between atoms: CB_28  and  CG_29
REMARK   15  A    between atoms: CA_40  and  C_41
REMARK   16  A    between atoms: N_43  and  CA_44
REMARK   17  A    between atoms: CA_44  and  C_46
REMARK   18  A    between atoms: C_50  and  CA_52
REMARK   19  A    between atoms: CA_52  and  CB_53
REMARK   20  A    between atoms: CA_52  and  N_60
REMARK   21  A    between atoms: CB_53  and  CG_54
REMARK   22  A    between atoms: CG_54  and  CD_55
REMARK   23  A    between atoms: CD_55  and  NE_56
REMARK   24  A    between atoms: C_61  and  C_63
REMARK   25  A    between atoms: C_63  and  N_64
REMARK                            x       y       z     vdW  Elec       q    Type
REMARK                         _______ _______ _______ _____ _____    ______ ____
ROOT
ATOM      1  CA  ARG A   1      47.524  79.497  42.153  0.00  0.00    +0.177 C 
ENDROOT
BRANCH   1   4
ATOM      2  C   ARG A   1      45.978  80.373  40.380  0.00  0.00    +0.262 C 
ATOM      3  O   ARG A   1      45.363  80.982  41.323  0.00  0.00    -0.271 OA
ATOM      4  N   ARG A   1      47.026  79.556  40.832  0.00  0.00    -0.196 NA
BRANCH   2   5
ATOM      5  CA  ARG A   1      45.571  80.565  38.983  0.00  0.00    +0.173 C 
BRANCH   5   7
ATOM      6  CG1 ARG A   1      47.251  82.427  38.658  0.00  0.00    +0.002 C 
ATOM      7  CB  ARG A   1      45.801  82.011  38.600  0.00  0.00    +0.029 C 
ATOM      8  CG2 ARG A   1      45.037  83.001  39.423  0.00  0.00    +0.002 C 
ENDBRANCH   5   7
BRANCH   5   9
ATOM      9  N   ARG A   1      44.136  80.275  38.861  0.00  0.00    -0.196 NA
ATOM     10  C   ARG A   1      43.623  79.042  38.409  0.00  0.00    +0.262 C 
ATOM     11  O   ARG A   1      44.402  78.186  37.908  0.00  0.00    -0.271 OA
BRANCH  10  12
ATOM     12  CA  ARG A   1      42.181  78.702  38.500  0.00  0.00    +0.173 C 
BRANCH  12  13
ATOM     13  N   ARG A   1      42.052  77.275  38.645  0.00  0.00    -0.197 NA
ATOM     14  C   UNK A   0      40.828  76.598  38.920  0.00  0.00    +0.259 C 
ATOM     15  O   UNK A   0      39.844  77.257  39.343  0.00  0.00    -0.272 OA
BRANCH  14  16
ATOM     16  C   UNK A   0      40.744  75.119  38.698  0.00  0.00    +0.175 C 
BRANCH  16  17
ATOM     17  N   UNK A   0      39.346  74.750  38.906  0.00  0.00    -0.207 NA
ATOM     18  C   UNK A   0      39.260  73.328  38.573  0.00  0.00    +0.108 C 
ENDBRANCH  16  17
ENDBRANCH  14  16
ENDBRANCH  12  13
BRANCH  12  19
ATOM     19  CB  ARG A   1      41.295  79.215  37.447  0.00  0.00    +0.033 C 
BRANCH  19  20
ATOM     20  CG  ARG A   1      39.822  79.032  37.627  0.00  0.00    +0.029 C 
BRANCH  20  21
ATOM     21  CD  ARG A   1      39.056  79.641  36.437  0.00  0.00    +0.129 C 
BRANCH  21  22
ATOM     22  NE  ARG A   1      39.229  78.835  35.269  0.00  0.00    -0.234 NA
ATOM     23  CZ  ARG A   1      38.706  79.185  34.153  0.00  0.00    +0.284 C 
ATOM     24  NH1 ARG A   1      37.970  80.421  34.157  0.00  0.00    -0.104 NA
ATOM     25  NH2 ARG A   1      38.792  78.467  32.937  0.00  0.00    -0.104 NA
ENDBRANCH  21  22
ENDBRANCH  20  21
ENDBRANCH  19  20
ENDBRANCH  12  19
ENDBRANCH  10  12
ENDBRANCH   5   9
ENDBRANCH   2   5
ENDBRANCH   1   4
BRANCH   1  26
ATOM     26  C   ARG A   1      48.673  80.293  42.536  0.00  0.00    +0.262 C 
ATOM     27  O   ARG A   1      49.690  80.249  41.750  0.00  0.00    -0.271 OA
ATOM     28  N   VAL A   2      48.839  81.119  43.662  0.00  0.00    -0.196 NA
BRANCH  28  29
ATOM     29  CA  VAL A   2      50.125  81.712  44.004  0.00  0.00    +0.173 C 
BRANCH  29  30
ATOM     30  CB  VAL A   2      50.029  83.191  43.772  0.00  0.00    +0.029 C 
ATOM     31  CG1 VAL A   2      49.024  83.853  44.693  0.00  0.00    +0.002 C 
ATOM     32  CG2 VAL A   2      49.709  83.490  42.320  0.00  0.00    +0.002 C 
ENDBRANCH  29  30
BRANCH  29  33
ATOM     33  C   VAL A   2      50.595  81.316  45.336  0.00  0.00    +0.262 C 
ATOM     34  O   VAL A   2      49.746  81.381  46.287  0.00  0.00    -0.271 OA
ATOM     35  N   HIS A   3      51.907  80.872  45.667  0.00  0.00    -0.196 NA
BRANCH  35  36
ATOM     36  CA  HIS A   3      52.251  80.506  47.042  0.00  0.00    +0.177 C 
BRANCH  36  37
ATOM     37  C   HIS A   3      53.697  80.570  47.203  0.00  0.00    +0.246 C 
ATOM     38  O   HIS A   3      54.470  80.867  46.213  0.00  0.00    -0.273 OA
ATOM     39  N   PRO A   4      54.352  80.324  48.434  0.00  0.00    -0.272 N 
ATOM     40  CD  PRO A   4      53.622  80.020  49.688  0.00  0.00    +0.094 C 
ATOM     41  CG  PRO A   4      54.424  78.875  50.247  0.00  0.00    +0.024 C 
ATOM     42  CB  PRO A   4      55.739  78.835  49.458  0.00  0.00    +0.031 C 
ATOM     43  CA  PRO A   4      55.718  80.223  48.816  0.00  0.00    +0.154 C 
BRANCH  43  44
ATOM     44  C   PRO A   4      56.273  81.243  49.681  0.00  0.00    +0.260 C 
ATOM     45  O   PRO A   4      55.479  81.666  50.613  0.00  0.00    -0.272 OA
ATOM     46  N   ALA A   5      57.552  81.833  49.641  0.00  0.00    -0.194 NA
BRANCH  46  47
ATOM     47  CA  ALA A   5      58.040  82.617  50.753  0.00  0.00    +0.198 C 
ATOM     48  CB  ALA A   5      57.517  81.992  52.055  0.00  0.00    +0.036 C 
BRANCH  47  49
ATOM     49  C   ALA A   5      59.508  82.734  50.787  0.00  0.00    +0.384 C 
ATOM     50  O   ALA A   5      60.201  81.703  50.617  0.00  0.00    -0.244 OA
ATOM     51  OXT ALA A   5      60.162  83.932  50.998  0.00  0.00    -0.244 OA
ENDBRANCH  47  49
ENDBRANCH  46  47
ENDBRANCH  43  44
ENDBRANCH  36  37
BRANCH  36  52
ATOM     52  CB  HIS A   3      51.675  79.237  47.510  0.00  0.00    +0.078 C 
BRANCH  52  53
ATOM     53  CG  HIS A   3      51.876  78.854  48.915  0.00  0.00    +0.082 A 
ATOM     54  CD2 HIS A   3      52.647  79.662  49.784  0.00  0.00    +0.115 A 
ATOM     55  NE2 HIS A   3      52.632  79.043  50.965  0.00  0.00    -0.221 NA
ATOM     56  CE1 HIS A   3      51.909  77.924  50.869  0.00  0.00    +0.199 A 
ATOM     57  ND1 HIS A   3      51.432  77.794  49.596  0.00  0.00    -0.227 NA
ENDBRANCH  52  53
ENDBRANCH  36  52
ENDBRANCH  35  36
ENDBRANCH  29  33
ENDBRANCH  28  29
ENDBRANCH   1  26
BRANCH   1  58
ATOM     58  CB  ARG A   1      47.429  78.163  42.880  0.00  0.00    +0.057 C 
BRANCH  58  59
ATOM     59  CG  ARG A   1      46.114  77.560  42.563  0.00  0.00    -0.020 A 
ATOM     60  CD1 ARG A   1      46.055  76.921  41.318  0.00  0.00    -0.001 A 
ATOM     61  CE1 ARG A   1      44.934  76.309  40.828  0.00  0.00    +0.042 A 
ATOM     62  CZ  ARG A   1      43.789  76.322  41.608  0.00  0.00    +0.196 A 
ATOM     63  CE2 ARG A   1      43.839  76.948  42.830  0.00  0.00    +0.042 A 
ATOM     64  CD2 ARG A   1      44.993  77.566  43.309  0.00  0.00    -0.001 A 
ATOM     65  OH  ARG A   1      42.635  75.695  41.114  0.00  0.00    -0.287 OA
ENDBRANCH  58  59
ENDBRANCH   1  58
TORSDOF 25
