REMARK  Name = Sarecycline
REMARK  5 active torsions:
REMARK  status: ('A' for Active; 'I' for Inactive)
REMARK    1  A    between atoms: N_2  and  C_4
REMARK    2  A    between atoms: C_10  and  C_31
REMARK    3  A    between atoms: C_21  and  C_24
REMARK    4  A    between atoms: C_31  and  N_32
REMARK    5  A    between atoms: N_32  and  O_34
REMARK                            x       y       z     vdW  Elec       q    Type
REMARK                         _______ _______ _______ _____ _____    ______ ____
ROOT
ATOM      1  C   UNL     1      43.403  76.756  41.498  0.00  0.00    +0.124 C 
ATOM      2  C   UNL     1      44.344  77.543  40.669  0.00  0.00    +0.065 C 
ATOM      3  C   UNL     1      45.259  78.441  41.452  0.00  0.00    +0.010 C 
ATOM      4  C   UNL     1      46.132  79.317  40.593  0.00  0.00    +0.033 C 
ATOM      5  C   UNL     1      47.044  80.132  41.403  0.00  0.00    +0.031 C 
ATOM      6  C   UNL     1      47.600  81.306  40.747  0.00  0.00    -0.018 A 
ATOM      7  C   UNL     1      48.760  81.943  41.237  0.00  0.00    -0.007 A 
ATOM      8  C   UNL     1      49.190  83.111  40.661  0.00  0.00    +0.000 A 
ATOM      9  C   UNL     1      48.488  83.674  39.595  0.00  0.00    +0.042 A 
ATOM     10  C   UNL     1      47.356  83.067  39.101  0.00  0.00    +0.198 A 
ATOM     11  C   UNL     1      46.946  81.894  39.694  0.00  0.00    +0.073 A 
ATOM     12  C   UNL     1      45.829  81.184  39.089  0.00  0.00    +0.197 C 
ATOM     13  C   UNL     1      45.462  79.994  39.525  0.00  0.00    +0.054 C 
ATOM     14  C   UNL     1      44.308  79.328  38.915  0.00  0.00    +0.207 C 
ATOM     15  O   UNL     1      44.082  79.500  37.687  0.00  0.00    -0.289 OA
ATOM     16  C   UNL     1      43.485  78.490  39.819  0.00  0.00    +0.237 C 
ATOM     17  C   UNL     1      42.492  77.837  38.988  0.00  0.00    +0.215 C 
ATOM     18  C   UNL     1      41.978  76.678  39.322  0.00  0.00    +0.130 C 
ATOM     19  C   UNL     1      42.434  76.053  40.562  0.00  0.00    +0.195 C 
ATOM     20  O   UNL     1      41.971  74.906  40.790  0.00  0.00    -0.290 OA
ATOM     21  O   UNL     1      42.075  78.448  37.818  0.00  0.00    -0.288 OA
ATOM     22  O   UNL     1      42.794  79.378  40.654  0.00  0.00    -0.210 OA
ATOM     23  O   UNL     1      45.129  81.778  38.020  0.00  0.00    -0.287 OA
ATOM     24  O   UNL     1      46.631  83.607  38.031  0.00  0.00    -0.286 OA
ENDROOT
BRANCH   1  26
ATOM     25  C   UNL     1      44.752  74.890  41.621  0.00  0.00    +0.090 C 
ATOM     26  N   UNL     1      43.840  75.774  42.377  0.00  0.00    -0.265 NA
ATOM     27  C   UNL     1      42.998  74.968  43.146  0.00  0.00    +0.090 C 
ENDBRANCH   1  26
BRANCH  18  28
ATOM     28  C   UNL     1      40.974  76.031  38.478  0.00  0.00    +0.290 C 
ATOM     29  O   UNL     1      40.329  75.073  38.946  0.00  0.00    -0.266 OA
ATOM     30  N   UNL     1      40.739  76.481  37.161  0.00  0.00    -0.084 NA
ENDBRANCH  18  28
BRANCH   7  31
ATOM     31  C   UNL     1      49.446  81.296  42.351  0.00  0.00    +0.127 C 
BRANCH  31  32
ATOM     32  N   UNL     1      50.537  82.157  42.804  0.00  0.00    -0.160 NA
ATOM     33  C   UNL     1      50.849  81.869  44.200  0.00  0.00    +0.121 C 
BRANCH  32  34
ATOM     34  O   UNL     1      50.193  83.469  42.664  0.00  0.00    -0.279 OA
ATOM     35  C   UNL     1      49.322  83.801  43.714  0.00  0.00    +0.201 C 
ENDBRANCH  32  34
ENDBRANCH  31  32
ENDBRANCH   7  31
TORSDOF 5
