REMARK  Name = Saroglitazar
REMARK  11 active torsions:
REMARK  status: ('A' for Active; 'I' for Inactive)
REMARK    1  A    between atoms: C_2  and  O_3
REMARK    2  A    between atoms: O_3  and  C_4
REMARK    3  A    between atoms: C_4  and  C_5
REMARK    4  A    between atoms: C_4  and  C_29
REMARK    5  A    between atoms: C_5  and  C_6
REMARK    6  A    between atoms: C_9  and  O_12
REMARK    7  A    between atoms: O_12  and  C_13
REMARK    8  A    between atoms: C_13  and  C_14
REMARK    9  A    between atoms: C_14  and  N_15
REMARK   10  A    between atoms: C_19  and  C_20
REMARK   11  A    between atoms: C_23  and  S_26
REMARK                            x       y       z     vdW  Elec       q    Type
REMARK                         _______ _______ _______ _____ _____    ______ ____
ROOT
ATOM      1  C   UNL     1      46.190  78.657  40.882  0.00  0.00    +0.230 C 
ENDROOT
BRANCH   1   2
ATOM      2  O   UNL     1      45.399  77.733  41.538  0.00  0.00    -0.473 OA
BRANCH   2   6
ATOM      3  C   UNL     1      42.442  75.034  40.294  0.00  0.00    -0.019 A 
ATOM      4  C   UNL     1      43.759  74.870  39.865  0.00  0.00    -0.001 A 
ATOM      5  C   UNL     1      44.751  75.744  40.261  0.00  0.00    +0.037 A 
ATOM      6  C   UNL     1      44.509  76.812  41.088  0.00  0.00    +0.139 A 
ATOM      7  C   UNL     1      43.181  76.974  41.518  0.00  0.00    +0.037 A 
ATOM      8  C   UNL     1      42.191  76.102  41.123  0.00  0.00    -0.001 A 
BRANCH   3   9
ATOM      9  C   UNL     1      41.443  74.046  39.846  0.00  0.00    +0.068 C 
BRANCH   9  10
ATOM     10  C   UNL     1      40.271  74.683  39.165  0.00  0.00    +0.222 C 
BRANCH  10  11
ATOM     11  C   UNL     1      39.234  73.685  38.864  0.00  0.00    +0.392 C 
ATOM     12  O   UNL     1      38.199  73.592  39.550  0.00  0.00    -0.243 OA
ATOM     13  O   UNL     1      39.389  72.814  37.798  0.00  0.00    -0.243 OA
ENDBRANCH  10  11
BRANCH  10  14
ATOM     14  O   UNL     1      40.668  75.382  38.018  0.00  0.00    -0.345 OA
BRANCH  14  16
ATOM     15  C   UNL     1      40.098  77.043  36.354  0.00  0.00    +0.035 C 
ATOM     16  C   UNL     1      39.668  76.213  37.532  0.00  0.00    +0.143 C 
ENDBRANCH  14  16
ENDBRANCH  10  14
ENDBRANCH   9  10
ENDBRANCH   3   9
ENDBRANCH   2   6
ENDBRANCH   1   2
BRANCH   1  17
ATOM     17  C   UNL     1      45.753  80.058  41.234  0.00  0.00    +0.153 C 
BRANCH  17  18
ATOM     18  N   UNL     1      45.957  80.982  40.163  0.00  0.00    -0.327 N 
ATOM     19  C   UNL     1      45.149  81.012  39.055  0.00  0.00    +0.038 A 
ATOM     20  C   UNL     1      45.595  82.019  38.245  0.00  0.00    +0.014 A 
ATOM     21  C   UNL     1      46.666  82.604  38.846  0.00  0.00    +0.018 A 
ATOM     22  C   UNL     1      46.880  81.928  40.065  0.00  0.00    +0.060 A 
ATOM     23  C   UNL     1      43.997  80.128  38.761  0.00  0.00    +0.050 C 
BRANCH  22  24
ATOM     24  C   UNL     1      47.925  82.290  40.999  0.00  0.00    +0.016 A 
ATOM     25  C   UNL     1      49.274  82.052  40.695  0.00  0.00    +0.002 A 
ATOM     26  C   UNL     1      50.294  82.360  41.568  0.00  0.00    +0.006 A 
ATOM     27  C   UNL     1      50.021  82.923  42.792  0.00  0.00    +0.025 A 
ATOM     28  C   UNL     1      48.705  83.163  43.105  0.00  0.00    +0.006 A 
ATOM     29  C   UNL     1      47.661  82.850  42.220  0.00  0.00    +0.002 A 
BRANCH  27  30
ATOM     30  S   UNL     1      51.367  83.311  43.901  0.00  0.00    -0.113 S 
ATOM     31  C   UNL     1      50.794  84.605  45.037  0.00  0.00    +0.074 C 
ENDBRANCH  27  30
ENDBRANCH  22  24
ENDBRANCH  17  18
ENDBRANCH   1  17
TORSDOF 11
