REMARK  Name = Sarpogrelate
REMARK  14 active torsions:
REMARK  status: ('A' for Active; 'I' for Inactive)
REMARK    1  A    between atoms: N_2  and  C_4
REMARK    2  A    between atoms: C_4  and  C_5
REMARK    3  A    between atoms: C_5  and  C_6
REMARK    4  A    between atoms: C_5  and  O_24
REMARK    5  A    between atoms: C_6  and  O_7
REMARK    6  A    between atoms: O_7  and  C_8
REMARK    7  A    between atoms: C_13  and  C_14
REMARK    8  A    between atoms: C_14  and  C_15
REMARK    9  A    between atoms: C_15  and  C_16
REMARK   10  A    between atoms: C_18  and  O_22
REMARK   11  A    between atoms: O_24  and  C_25
REMARK   12  A    between atoms: C_25  and  C_27
REMARK   13  A    between atoms: C_27  and  C_28
REMARK   14  A    between atoms: C_28  and  C_29
REMARK                            x       y       z     vdW  Elec       q    Type
REMARK                         _______ _______ _______ _____ _____    ______ ____
ROOT
ATOM      1  C   UNL     1      45.423  80.302  39.969  0.00  0.00    +0.135 A 
ATOM      2  C   UNL     1      44.592  80.557  38.850  0.00  0.00    +0.037 A 
ATOM      3  C   UNL     1      44.665  81.695  38.143  0.00  0.00    +0.003 A 
ATOM      4  C   UNL     1      45.585  82.657  38.521  0.00  0.00    -0.000 A 
ATOM      5  C   UNL     1      46.425  82.475  39.596  0.00  0.00    -0.001 A 
ATOM      6  C   UNL     1      46.337  81.286  40.314  0.00  0.00    +0.012 A 
ENDROOT
BRANCH   1   7
ATOM      7  O   UNL     1      45.307  79.188  40.632  0.00  0.00    -0.472 OA
BRANCH   7   8
ATOM      8  C   UNL     1      45.202  78.100  41.291  0.00  0.00    +0.250 C 
BRANCH   8   9
ATOM      9  C   UNL     1      44.220  77.067  40.658  0.00  0.00    +0.228 C 
BRANCH   9  10
ATOM     10  C   UNL     1      43.163  77.877  39.890  0.00  0.00    +0.120 C 
BRANCH  10  12
ATOM     11  C   UNL     1      42.273  75.746  39.272  0.00  0.00    +0.090 C 
ATOM     12  N   UNL     1      42.682  77.072  38.811  0.00  0.00    -0.267 NA
ATOM     13  C   UNL     1      41.653  77.648  38.006  0.00  0.00    +0.090 C 
ENDBRANCH  10  12
ENDBRANCH   9  10
BRANCH   9  14
ATOM     14  O   UNL     1      43.559  76.407  41.689  0.00  0.00    -0.447 OA
BRANCH  14  15
ATOM     15  C   UNL     1      44.356  75.888  42.721  0.00  0.00    +0.318 C 
ATOM     16  O   UNL     1      45.503  75.436  42.543  0.00  0.00    -0.250 OA
BRANCH  15  17
ATOM     17  C   UNL     1      43.782  75.881  44.089  0.00  0.00    +0.121 C 
BRANCH  17  18
ATOM     18  C   UNL     1      44.929  75.785  45.082  0.00  0.00    +0.126 C 
BRANCH  18  19
ATOM     19  C   UNL     1      44.400  75.896  46.443  0.00  0.00    +0.365 C 
ATOM     20  O   UNL     1      45.216  75.893  47.433  0.00  0.00    -0.246 OA
ATOM     21  O   UNL     1      43.038  76.001  46.705  0.00  0.00    -0.246 OA
ENDBRANCH  18  19
ENDBRANCH  17  18
ENDBRANCH  15  17
ENDBRANCH  14  15
ENDBRANCH   9  14
ENDBRANCH   8   9
ENDBRANCH   7   8
ENDBRANCH   1   7
BRANCH   6  22
ATOM     22  C   UNL     1      47.320  81.007  41.385  0.00  0.00    +0.034 C 
BRANCH  22  23
ATOM     23  C   UNL     1      48.266  82.106  41.663  0.00  0.00    +0.031 C 
BRANCH  23  24
ATOM     24  C   UNL     1      49.308  81.954  42.685  0.00  0.00    -0.019 A 
ATOM     25  C   UNL     1      49.833  83.073  43.324  0.00  0.00    +0.033 A 
ATOM     26  C   UNL     1      50.708  82.958  44.365  0.00  0.00    +0.138 A 
ATOM     27  C   UNL     1      51.088  81.699  44.796  0.00  0.00    +0.037 A 
ATOM     28  C   UNL     1      50.571  80.568  44.158  0.00  0.00    +0.003 A 
ATOM     29  C   UNL     1      49.686  80.675  43.111  0.00  0.00    -0.004 A 
BRANCH  26  30
ATOM     30  O   UNL     1      51.165  84.099  44.935  0.00  0.00    -0.471 OA
ATOM     31  C   UNL     1      51.166  85.363  44.353  0.00  0.00    +0.252 C 
ENDBRANCH  26  30
ENDBRANCH  23  24
ENDBRANCH  22  23
ENDBRANCH   6  22
TORSDOF 14
