REMARK  Name = Saxagliptin
REMARK  3 active torsions:
REMARK  status: ('A' for Active; 'I' for Inactive)
REMARK    1  A    between atoms: C_6  and  C_7
REMARK    2  A    between atoms: C_9  and  C_11
REMARK    3  A    between atoms: C_11  and  C_12
REMARK                            x       y       z     vdW  Elec       q    Type
REMARK                         _______ _______ _______ _____ _____    ______ ____
ROOT
ATOM      1  C   UNL     1      46.496  81.801  39.935  0.00  0.00    +0.168 C 
ATOM      2  N   UNL     1      46.482  82.393  38.626  0.00  0.00    -0.123 NA
ENDROOT
BRANCH   1   3
ATOM      3  C   UNL     1      45.748  80.481  39.941  0.00  0.00    +0.027 C 
ATOM      4  C   UNL     1      46.395  79.408  39.152  0.00  0.00    +0.002 C 
ATOM      5  C   UNL     1      45.546  78.132  39.269  0.00  0.00    +0.002 C 
ATOM      6  C   UNL     1      44.167  78.378  38.719  0.00  0.00    +0.000 C 
ATOM      7  C   UNL     1      43.523  79.463  39.536  0.00  0.00    +0.002 C 
ATOM      8  C   UNL     1      44.362  80.724  39.407  0.00  0.00    +0.002 C 
ATOM      9  C   UNL     1      43.480  79.046  40.984  0.00  0.00    +0.030 C 
ATOM     10  C   UNL     1      44.865  78.788  41.498  0.00  0.00    +0.127 C 
ATOM     11  C   UNL     1      45.504  77.681  40.684  0.00  0.00    +0.030 C 
ATOM     12  C   UNL     1      45.673  80.039  41.401  0.00  0.00    +0.032 C 
ATOM     13  O   UNL     1      44.811  78.370  42.830  0.00  0.00    -0.226 OA
ENDBRANCH   1   3
BRANCH   1  20
ATOM     14  C   UNL     1      49.091  82.715  43.870  0.00  0.00    +0.037 C 
ATOM     15  C   UNL     1      47.835  83.515  43.888  0.00  0.00    +0.023 C 
ATOM     16  C   UNL     1      47.753  84.708  43.038  0.00  0.00    +0.022 C 
ATOM     17  C   UNL     1      47.232  83.423  42.511  0.00  0.00    +0.076 C 
ATOM     18  N   UNL     1      48.078  82.522  41.786  0.00  0.00    -0.269 N 
ATOM     19  C   UNL     1      49.380  82.474  42.438  0.00  0.00    +0.167 C 
ATOM     20  C   UNL     1      47.779  81.798  40.627  0.00  0.00    +0.244 C 
ATOM     21  O   UNL     1      48.696  81.084  40.139  0.00  0.00    -0.273 OA
BRANCH  19  22
ATOM     22  C   UNL     1      50.301  83.447  41.855  0.00  0.00    +0.093 C 
ATOM     23  N   UNL     1      51.044  84.209  41.377  0.00  0.00    -0.194 NA
ENDBRANCH  19  22
ENDBRANCH   1  20
TORSDOF 3
