REMARK  Name = Schizophyllan
REMARK  10 active torsions:
REMARK  status: ('A' for Active; 'I' for Inactive)
REMARK    1  A    between atoms: C_1  and  C_2
REMARK    2  A    between atoms: C_4  and  O_10
REMARK    3  A    between atoms: O_10  and  C_11
REMARK    4  A    between atoms: C_13  and  O_31
REMARK    5  A    between atoms: C_15  and  C_17
REMARK    6  A    between atoms: C_17  and  O_18
REMARK    7  A    between atoms: O_18  and  C_19
REMARK    8  A    between atoms: C_23  and  C_25
REMARK    9  A    between atoms: O_31  and  C_32
REMARK   10  A    between atoms: C_36  and  C_38
REMARK                            x       y       z     vdW  Elec       q    Type
REMARK                         _______ _______ _______ _____ _____    ______ ____
ROOT
ATOM      1  C   UNL     1      44.300  78.729  39.790  0.00  0.00    +0.269 C 
ATOM      2  C   UNL     1      42.935  78.466  39.266  0.00  0.00    +0.237 C 
ATOM      3  C   UNL     1      42.431  77.070  39.395  0.00  0.00    +0.186 C 
ATOM      4  C   UNL     1      43.557  76.039  39.484  0.00  0.00    +0.211 C 
ATOM      5  C   UNL     1      44.640  76.518  40.435  0.00  0.00    +0.180 C 
ATOM      6  O   UNL     1      45.164  77.659  39.800  0.00  0.00    -0.326 OA
ATOM      7  O   UNL     1      43.047  74.806  39.766  0.00  0.00    -0.218 OA
ATOM      8  O   UNL     1      42.808  78.911  37.931  0.00  0.00    -0.215 OA
ENDROOT
BRANCH   1   9
ATOM      9  O   UNL     1      44.891  79.687  38.931  0.00  0.00    -0.326 OA
BRANCH   9  12
ATOM     10  C   UNL     1      47.752  80.779  39.954  0.00  0.00    +0.183 C 
ATOM     11  C   UNL     1      46.385  80.453  40.571  0.00  0.00    +0.211 C 
ATOM     12  C   UNL     1      45.270  80.837  39.589  0.00  0.00    +0.186 C 
ATOM     13  C   UNL     1      45.871  81.864  38.646  0.00  0.00    +0.240 C 
ATOM     14  C   UNL     1      46.834  82.794  39.321  0.00  0.00    +0.302 C 
ATOM     15  O   UNL     1      47.954  82.131  39.818  0.00  0.00    -0.324 OA
ATOM     16  O   UNL     1      47.224  83.735  38.359  0.00  0.00    -0.187 OA
ATOM     17  O   UNL     1      44.866  82.667  38.069  0.00  0.00    -0.215 OA
ATOM     18  O   UNL     1      46.219  81.069  41.789  0.00  0.00    -0.218 OA
BRANCH  10  19
ATOM     19  C   UNL     1      48.781  80.192  40.925  0.00  0.00    +0.214 C 
ATOM     20  O   UNL     1      49.771  81.159  41.099  0.00  0.00    -0.218 OA
ENDBRANCH  10  19
ENDBRANCH   9  12
ENDBRANCH   1   9
BRANCH   5  21
ATOM     21  C   UNL     1      44.126  76.943  41.765  0.00  0.00    +0.177 C 
BRANCH  21  22
ATOM     22  O   UNL     1      44.868  76.619  42.861  0.00  0.00    -0.326 OA
BRANCH  22  23
ATOM     23  C   UNL     1      44.723  75.352  43.360  0.00  0.00    +0.270 C 
ATOM     24  C   UNL     1      45.988  74.569  43.154  0.00  0.00    +0.241 C 
ATOM     25  C   UNL     1      45.689  73.103  42.840  0.00  0.00    +0.220 C 
ATOM     26  C   UNL     1      44.557  72.612  43.709  0.00  0.00    +0.214 C 
ATOM     27  C   UNL     1      43.398  73.558  43.545  0.00  0.00    +0.183 C 
ATOM     28  O   UNL     1      43.699  74.641  42.707  0.00  0.00    -0.326 OA
ATOM     29  O   UNL     1      44.245  71.319  43.285  0.00  0.00    -0.218 OA
ATOM     30  O   UNL     1      46.850  72.388  43.132  0.00  0.00    -0.217 OA
ATOM     31  O   UNL     1      46.702  75.038  42.027  0.00  0.00    -0.215 OA
BRANCH  27  32
ATOM     32  C   UNL     1      42.123  72.860  43.129  0.00  0.00    +0.214 C 
ATOM     33  O   UNL     1      41.103  73.821  43.219  0.00  0.00    -0.218 OA
ENDBRANCH  27  32
ENDBRANCH  22  23
ENDBRANCH  21  22
ENDBRANCH   5  21
BRANCH   3  34
ATOM     34  O   UNL     1      41.728  76.749  38.246  0.00  0.00    -0.326 OA
BRANCH  34  35
ATOM     35  C   UNL     1      40.387  77.127  38.274  0.00  0.00    +0.270 C 
ATOM     36  C   UNL     1      39.835  77.013  36.896  0.00  0.00    +0.241 C 
ATOM     37  C   UNL     1      38.895  75.843  36.718  0.00  0.00    +0.220 C 
ATOM     38  C   UNL     1      39.514  74.699  37.489  0.00  0.00    +0.214 C 
ATOM     39  C   UNL     1      39.515  75.070  38.934  0.00  0.00    +0.183 C 
ATOM     40  O   UNL     1      39.779  76.367  39.230  0.00  0.00    -0.326 OA
ATOM     41  O   UNL     1      40.836  74.579  37.059  0.00  0.00    -0.218 OA
ATOM     42  O   UNL     1      38.844  75.564  35.346  0.00  0.00    -0.217 OA
ATOM     43  O   UNL     1      39.104  78.160  36.564  0.00  0.00    -0.215 OA
BRANCH  39  44
ATOM     44  C   UNL     1      38.227  74.584  39.614  0.00  0.00    +0.214 C 
ATOM     45  O   UNL     1      38.522  73.994  40.843  0.00  0.00    -0.218 OA
ENDBRANCH  39  44
ENDBRANCH  34  35
ENDBRANCH   3  34
TORSDOF 10
