REMARK  Name = Scopolamine
REMARK  5 active torsions:
REMARK  status: ('A' for Active; 'I' for Inactive)
REMARK    1  A    between atoms: C_5  and  O_11
REMARK    2  A    between atoms: O_11  and  C_12
REMARK    3  A    between atoms: C_12  and  C_14
REMARK    4  A    between atoms: C_14  and  C_15
REMARK    5  A    between atoms: C_14  and  C_17
REMARK                            x       y       z     vdW  Elec       q    Type
REMARK                         _______ _______ _______ _____ _____    ______ ____
ROOT
ATOM      1  O   UNL     1      47.782  81.429  41.777  0.00  0.00    -0.452 OA
ENDROOT
BRANCH   1   6
ATOM      2  C   UNL     1      46.079  82.666  38.610  0.00  0.00    +0.090 C 
ATOM      3  N   UNL     1      45.457  81.383  38.666  0.00  0.00    -0.269 NA
ATOM      4  C   UNL     1      46.368  80.281  38.604  0.00  0.00    +0.091 C 
ATOM      5  C   UNL     1      47.411  80.450  39.670  0.00  0.00    +0.062 C 
ATOM      6  C   UNL     1      46.878  80.622  41.041  0.00  0.00    +0.172 C 
ATOM      7  C   UNL     1      45.509  81.221  41.119  0.00  0.00    +0.062 C 
ATOM      8  C   UNL     1      44.715  81.132  39.866  0.00  0.00    +0.091 C 
ATOM      9  C   UNL     1      44.319  79.661  39.676  0.00  0.00    +0.158 C 
ATOM     10  C   UNL     1      45.470  79.093  38.852  0.00  0.00    +0.158 C 
ATOM     11  O   UNL     1      45.186  78.698  40.136  0.00  0.00    -0.351 OA
ENDBRANCH   1   6
BRANCH   1  12
ATOM     12  C   UNL     1      49.108  81.121  41.952  0.00  0.00    +0.323 C 
ATOM     13  O   UNL     1      49.542  80.114  41.316  0.00  0.00    -0.250 OA
BRANCH  12  14
ATOM     14  C   UNL     1      50.026  81.895  42.827  0.00  0.00    +0.154 C 
BRANCH  14  15
ATOM     15  C   UNL     1      49.428  83.190  43.216  0.00  0.00    -0.009 A 
ATOM     16  C   UNL     1      48.169  83.528  42.772  0.00  0.00    -0.004 A 
ATOM     17  C   UNL     1      47.629  84.738  43.144  0.00  0.00    -0.000 A 
ATOM     18  C   UNL     1      48.359  85.591  43.956  0.00  0.00    -0.000 A 
ATOM     19  C   UNL     1      49.627  85.265  44.411  0.00  0.00    -0.000 A 
ATOM     20  C   UNL     1      50.142  84.046  44.021  0.00  0.00    -0.004 A 
ENDBRANCH  14  15
BRANCH  14  21
ATOM     21  C   UNL     1      51.357  82.153  42.117  0.00  0.00    +0.198 C 
ATOM     22  O   UNL     1      52.087  80.991  41.987  0.00  0.00    -0.219 OA
ENDBRANCH  14  21
ENDBRANCH  12  14
ENDBRANCH   1  12
TORSDOF 5
