REMARK  Name = Secalciferol
REMARK  6 active torsions:
REMARK  status: ('A' for Active; 'I' for Inactive)
REMARK    1  A    between atoms: C_2  and  C_3
REMARK    2  A    between atoms: C_2  and  C_11
REMARK    3  A    between atoms: C_3  and  C_4
REMARK    4  A    between atoms: C_4  and  C_5
REMARK    5  A    between atoms: C_5  and  C_6
REMARK    6  A    between atoms: C_20  and  C_21
REMARK                            x       y       z     vdW  Elec       q    Type
REMARK                         _______ _______ _______ _____ _____    ______ ____
ROOT
ATOM      1  C   UNL     1      44.151  78.769  40.824  0.00  0.00    +0.000 C 
ATOM      2  C   UNL     1      44.729  78.338  42.126  0.00  0.00    +0.000 C 
ATOM      3  C   UNL     1      45.737  79.488  42.326  0.00  0.00    +0.004 C 
ATOM      4  C   UNL     1      46.301  79.654  40.931  0.00  0.00    +0.018 C 
ATOM      5  C   UNL     1      45.295  79.075  39.960  0.00  0.00    +0.003 C 
ATOM      6  C   UNL     1      44.947  80.009  38.840  0.00  0.00    +0.001 C 
ATOM      7  C   UNL     1      44.770  81.427  39.156  0.00  0.00    +0.004 C 
ATOM      8  C   UNL     1      45.399  81.943  40.423  0.00  0.00    +0.022 C 
ATOM      9  C   UNL     1      46.551  81.098  40.719  0.00  0.00    -0.045 C 
ATOM     10  C   UNL     1      47.791  81.538  40.810  0.00  0.00    -0.009 C 
ATOM     11  C   UNL     1      45.989  77.888  39.314  0.00  0.00    +0.000 C 
ENDROOT
BRANCH  10  12
ATOM     12  C   UNL     1      48.495  81.905  42.017  0.00  0.00    -0.005 C 
ATOM     13  C   UNL     1      49.380  82.850  42.174  0.00  0.00    -0.024 C 
ATOM     14  C   UNL     1      50.615  82.835  41.327  0.00  0.00    +0.059 C 
ATOM     15  C   UNL     1      51.812  83.300  42.129  0.00  0.00    +0.157 C 
ATOM     16  C   UNL     1      51.571  84.507  42.964  0.00  0.00    +0.038 C 
ATOM     17  C   UNL     1      50.429  84.292  43.936  0.00  0.00    +0.029 C 
ATOM     18  C   UNL     1      49.240  83.951  43.098  0.00  0.00    -0.026 C 
ATOM     19  C   UNL     1      48.133  84.644  43.178  0.00  0.00    -0.005 C 
ATOM     20  O   UNL     1      52.168  82.235  42.966  0.00  0.00    -0.223 OA
ENDBRANCH  10  12
BRANCH   1  22
ATOM     21  C   UNL     1      42.460  77.216  41.461  0.00  0.00    +0.000 C 
ATOM     22  C   UNL     1      42.964  78.052  40.325  0.00  0.00    +0.000 C 
BRANCH  22  23
ATOM     23  C   UNL     1      42.971  77.412  39.031  0.00  0.00    +0.003 C 
BRANCH  23  24
ATOM     24  C   UNL     1      41.987  76.428  38.585  0.00  0.00    +0.035 C 
BRANCH  24  25
ATOM     25  C   UNL     1      41.080  76.660  37.456  0.00  0.00    +0.180 C 
ATOM     26  O   UNL     1      40.403  77.914  37.652  0.00  0.00    -0.221 OA
BRANCH  25  27
ATOM     27  C   UNL     1      39.949  75.684  37.268  0.00  0.00    +0.155 C 
ATOM     28  C   UNL     1      38.716  76.092  38.051  0.00  0.00    +0.036 C 
ATOM     29  C   UNL     1      39.542  75.812  35.787  0.00  0.00    +0.036 C 
ATOM     30  O   UNL     1      40.317  74.400  37.508  0.00  0.00    -0.223 OA
ENDBRANCH  25  27
ENDBRANCH  24  25
ENDBRANCH  23  24
ENDBRANCH  22  23
ENDBRANCH   1  22
TORSDOF 6
