REMARK  Name = Secnidazole
REMARK  3 active torsions:
REMARK  status: ('A' for Active; 'I' for Inactive)
REMARK    1  A    between atoms: C_5  and  N_11
REMARK    2  A    between atoms: N_6  and  C_7
REMARK    3  A    between atoms: C_7  and  C_8
REMARK                            x       y       z     vdW  Elec       q    Type
REMARK                         _______ _______ _______ _____ _____    ______ ____
ROOT
ATOM      1  C   UNL     1      44.113  79.695  38.185  0.00  0.00    +0.072 C 
ATOM      2  C   UNL     1      45.078  80.687  38.736  0.00  0.00    +0.122 A 
ATOM      3  N   UNL     1      45.091  81.974  38.340  0.00  0.00    -0.228 NA
ATOM      4  C   UNL     1      46.050  82.596  39.002  0.00  0.00    +0.142 A 
ATOM      5  C   UNL     1      46.646  81.662  39.833  0.00  0.00    +0.226 A 
ATOM      6  N   UNL     1      46.034  80.487  39.659  0.00  0.00    -0.294 N 
ENDROOT
BRANCH   5   7
ATOM      7  N   UNL     1      47.729  81.980  40.685  0.00  0.00    +0.076 N 
ATOM      8  O   UNL     1      48.372  83.030  40.548  0.00  0.00    -0.125 OA
ATOM      9  O   UNL     1      48.073  81.119  41.694  0.00  0.00    -0.125 OA
ENDBRANCH   5   7
BRANCH   6  10
ATOM     10  C   UNL     1      46.294  79.251  40.322  0.00  0.00    +0.141 C 
BRANCH  10  11
ATOM     11  C   UNL     1      45.219  78.781  41.253  0.00  0.00    +0.175 C 
ATOM     12  C   UNL     1      45.051  77.309  41.369  0.00  0.00    +0.038 C 
ATOM     13  O   UNL     1      45.322  79.315  42.529  0.00  0.00    -0.221 OA
ENDBRANCH  10  11
ENDBRANCH   6  10
TORSDOF 3
