REMARK  Name = Secobarbital
REMARK  5 active torsions:
REMARK  status: ('A' for Active; 'I' for Inactive)
REMARK    1  A    between atoms: C_2  and  C_3
REMARK    2  A    between atoms: C_3  and  C_4
REMARK    3  A    between atoms: C_4  and  C_6
REMARK    4  A    between atoms: C_6  and  C_15
REMARK    5  A    between atoms: C_15  and  C_16
REMARK                            x       y       z     vdW  Elec       q    Type
REMARK                         _______ _______ _______ _____ _____    ______ ____
ROOT
ATOM      1  C   UNL     1      47.969  81.239  41.117  0.00  0.00    +0.145 C 
ATOM      2  C   UNL     1      48.340  82.091  39.955  0.00  0.00    +0.257 C 
ATOM      3  O   UNL     1      49.533  82.415  39.734  0.00  0.00    -0.272 OA
ATOM      4  N   UNL     1      47.360  82.573  39.043  0.00  0.00    -0.125 NA
ATOM      5  C   UNL     1      46.024  82.108  39.095  0.00  0.00    +0.352 C 
ATOM      6  O   UNL     1      45.160  82.533  38.292  0.00  0.00    -0.248 OA
ATOM      7  N   UNL     1      45.647  81.155  40.058  0.00  0.00    -0.125 NA
ATOM      8  C   UNL     1      46.621  80.668  40.972  0.00  0.00    +0.257 C 
ATOM      9  O   UNL     1      46.288  79.684  41.694  0.00  0.00    -0.272 OA
ENDROOT
BRANCH   1  10
ATOM     10  C   UNL     1      48.013  82.128  42.337  0.00  0.00    +0.017 C 
ATOM     11  C   UNL     1      49.435  82.327  42.826  0.00  0.00    +0.001 C 
BRANCH  10  12
ATOM     12  C   UNL     1      47.337  83.446  42.147  0.00  0.00    +0.001 C 
BRANCH  12  14
ATOM     13  C   UNL     1      48.350  85.270  43.528  0.00  0.00    +0.000 C 
ATOM     14  C   UNL     1      47.319  84.160  43.506  0.00  0.00    +0.000 C 
ENDBRANCH  12  14
ENDBRANCH  10  12
ENDBRANCH   1  10
BRANCH   1  15
ATOM     15  C   UNL     1      48.970  80.104  41.266  0.00  0.00    +0.044 C 
BRANCH  15  16
ATOM     16  C   UNL     1      48.976  79.232  40.061  0.00  0.00    -0.025 C 
ATOM     17  C   UNL     1      49.897  78.299  39.885  0.00  0.00    -0.005 C 
ENDBRANCH  15  16
ENDBRANCH   1  15
TORSDOF 5
