REMARK  Name = Selexipag
REMARK  12 active torsions:
REMARK  status: ('A' for Active; 'I' for Inactive)
REMARK    1  A    between atoms: C_2  and  N_4
REMARK    2  A    between atoms: N_4  and  C_5
REMARK    3  A    between atoms: N_4  and  C_18
REMARK    4  A    between atoms: C_5  and  C_6
REMARK    5  A    between atoms: C_6  and  C_7
REMARK    6  A    between atoms: C_7  and  C_8
REMARK    7  A    between atoms: C_8  and  O_9
REMARK    8  A    between atoms: O_9  and  C_10
REMARK    9  A    between atoms: C_10  and  C_11
REMARK   10  A    between atoms: N_13  and  S_14
REMARK   11  A    between atoms: C_21  and  C_30
REMARK   12  A    between atoms: C_22  and  C_24
REMARK                            x       y       z     vdW  Elec       q    Type
REMARK                         _______ _______ _______ _____ _____    ______ ____
ROOT
ATOM      1  C   UNL     1      45.371  80.494  40.041  0.00  0.00    +0.151 A 
ATOM      2  C   UNL     1      44.619  80.871  38.966  0.00  0.00    +0.133 A 
ATOM      3  N   UNL     1      43.621  80.034  38.591  0.00  0.00    -0.239 NA
ATOM      4  C   UNL     1      43.423  78.902  39.277  0.00  0.00    +0.099 A 
ATOM      5  C   UNL     1      44.182  78.527  40.356  0.00  0.00    +0.100 A 
ATOM      6  N   UNL     1      45.172  79.357  40.729  0.00  0.00    -0.228 NA
ENDROOT
BRANCH   5   7
ATOM      7  C   UNL     1      43.967  77.300  41.096  0.00  0.00    +0.019 A 
ATOM      8  C   UNL     1      44.009  76.074  40.485  0.00  0.00    +0.002 A 
ATOM      9  C   UNL     1      43.814  74.893  41.169  0.00  0.00    +0.000 A 
ATOM     10  C   UNL     1      43.566  74.987  42.531  0.00  0.00    +0.000 A 
ATOM     11  C   UNL     1      43.521  76.203  43.153  0.00  0.00    +0.000 A 
ATOM     12  C   UNL     1      43.720  77.375  42.445  0.00  0.00    +0.002 A 
ENDBRANCH   5   7
BRANCH   4  13
ATOM     13  C   UNL     1      42.328  78.021  38.842  0.00  0.00    +0.019 A 
ATOM     14  C   UNL     1      41.550  77.341  39.752  0.00  0.00    +0.002 A 
ATOM     15  C   UNL     1      40.539  76.533  39.289  0.00  0.00    +0.000 A 
ATOM     16  C   UNL     1      40.279  76.380  37.943  0.00  0.00    +0.000 A 
ATOM     17  C   UNL     1      41.083  77.079  37.067  0.00  0.00    +0.000 A 
ATOM     18  C   UNL     1      42.096  77.890  37.506  0.00  0.00    +0.002 A 
ENDBRANCH   4  13
BRANCH   1  19
ATOM     19  N   UNL     1      46.478  81.321  40.540  0.00  0.00    -0.294 N 
BRANCH  19  21
ATOM     20  C   UNL     1      48.648  81.245  39.406  0.00  0.00    +0.021 C 
ATOM     21  C   UNL     1      47.246  81.904  39.460  0.00  0.00    +0.074 C 
ATOM     22  C   UNL     1      47.543  83.344  39.824  0.00  0.00    +0.021 C 
ENDBRANCH  19  21
BRANCH  19  23
ATOM     23  C   UNL     1      46.688  81.454  41.937  0.00  0.00    +0.092 C 
BRANCH  23  24
ATOM     24  C   UNL     1      47.941  81.189  42.596  0.00  0.00    +0.024 C 
BRANCH  24  25
ATOM     25  C   UNL     1      48.166  81.129  44.029  0.00  0.00    +0.034 C 
BRANCH  25  26
ATOM     26  C   UNL     1      49.569  80.977  44.509  0.00  0.00    +0.143 C 
BRANCH  26  27
ATOM     27  O   UNL     1      50.332  82.114  44.319  0.00  0.00    -0.344 OA
BRANCH  27  28
ATOM     28  C   UNL     1      51.085  82.543  45.360  0.00  0.00    +0.230 C 
BRANCH  28  29
ATOM     29  C   UNL     1      51.782  83.803  44.951  0.00  0.00    +0.292 C 
ATOM     30  O   UNL     1      51.600  84.303  43.812  0.00  0.00    -0.269 OA
ATOM     31  N   UNL     1      52.657  84.450  45.848  0.00  0.00    -0.061 NA
BRANCH  31  32
ATOM     32  S   UNL     1      53.581  85.837  45.434  0.00  0.00    +0.078 S 
ATOM     33  O   UNL     1      54.258  86.396  46.652  0.00  0.00    -0.153 OA
ATOM     34  O   UNL     1      54.586  85.465  44.389  0.00  0.00    -0.153 OA
ATOM     35  C   UNL     1      52.447  87.040  44.740  0.00  0.00    +0.202 C 
ENDBRANCH  31  32
ENDBRANCH  28  29
ENDBRANCH  27  28
ENDBRANCH  26  27
ENDBRANCH  25  26
ENDBRANCH  24  25
ENDBRANCH  23  24
ENDBRANCH  19  23
ENDBRANCH   1  19
TORSDOF 12
