REMARK  Name = Selpercatinib
REMARK  7 active torsions:
REMARK  status: ('A' for Active; 'I' for Inactive)
REMARK    1  A    between atoms: C_4  and  C_19
REMARK    2  A    between atoms: C_6  and  O_11
REMARK    3  A    between atoms: O_11  and  C_12
REMARK    4  A    between atoms: C_12  and  C_13
REMARK    5  A    between atoms: N_31  and  C_32
REMARK    6  A    between atoms: C_32  and  C_33
REMARK    7  A    between atoms: C_36  and  O_39
REMARK                            x       y       z     vdW  Elec       q    Type
REMARK                         _______ _______ _______ _____ _____    ______ ____
ROOT
ATOM      1  C   UNL     1      47.270  80.661  41.528  0.00  0.00    +0.102 A 
ATOM      2  C   UNL     1      48.603  80.678  41.286  0.00  0.00    +0.119 A 
ATOM      3  N   UNL     1      49.511  80.980  42.241  0.00  0.00    -0.226 NA
ATOM      4  C   UNL     1      49.115  81.281  43.487  0.00  0.00    +0.151 A 
ATOM      5  C   UNL     1      47.759  81.265  43.734  0.00  0.00    +0.133 A 
ATOM      6  N   UNL     1      46.860  80.964  42.783  0.00  0.00    -0.239 NA
ATOM      7  N   UNL     1      50.058  81.605  44.522  0.00  0.00    -0.289 N 
ATOM      8  C   UNL     1      49.554  81.787  45.867  0.00  0.00    +0.108 C 
ATOM      9  C   UNL     1      50.769  81.754  46.806  0.00  0.00    +0.079 C 
ATOM     10  C   UNL     1      51.706  82.832  46.304  0.00  0.00    +0.035 C 
ATOM     11  C   UNL     1      52.260  81.700  45.458  0.00  0.00    +0.079 C 
ATOM     12  C   UNL     1      51.454  81.730  44.152  0.00  0.00    +0.108 C 
ATOM     13  N   UNL     1      51.644  80.743  46.314  0.00  0.00    -0.268 NA
ENDROOT
BRANCH   1  17
ATOM     14  C   UNL     1      47.729  83.241  39.709  0.00  0.00    +0.034 C 
ATOM     15  C   UNL     1      46.592  82.519  39.111  0.00  0.00    +0.017 A 
ATOM     16  C   UNL     1      46.024  81.350  39.484  0.00  0.00    +0.082 A 
ATOM     17  C   UNL     1      46.248  80.450  40.510  0.00  0.00    +0.040 A 
ATOM     18  C   UNL     1      45.501  79.297  40.580  0.00  0.00    +0.042 A 
ATOM     19  C   UNL     1      44.499  78.984  39.646  0.00  0.00    +0.158 A 
ATOM     20  C   UNL     1      44.317  79.908  38.662  0.00  0.00    +0.137 A 
ATOM     21  N   UNL     1      45.042  81.027  38.589  0.00  0.00    -0.225 N 
ATOM     22  N   UNL     1      45.026  82.004  37.692  0.00  0.00    -0.164 NA
ATOM     23  C   UNL     1      45.935  82.933  37.949  0.00  0.00    +0.118 A 
BRANCH  19  24
ATOM     24  O   UNL     1      43.816  77.822  39.807  0.00  0.00    -0.471 OA
BRANCH  24  25
ATOM     25  C   UNL     1      42.780  77.483  40.609  0.00  0.00    +0.236 C 
BRANCH  25  26
ATOM     26  C   UNL     1      41.496  77.016  39.984  0.00  0.00    +0.176 C 
ATOM     27  C   UNL     1      41.543  77.185  38.465  0.00  0.00    +0.122 C 
ATOM     28  N   UNL     1      40.487  76.428  37.829  0.00  0.00    -0.213 NA
ATOM     29  C   UNL     1      40.722  75.019  38.086  0.00  0.00    +0.121 C 
ATOM     30  C   UNL     1      41.137  74.776  39.493  0.00  0.00    +0.161 C 
ATOM     31  O   UNL     1      40.979  75.830  40.360  0.00  0.00    -0.349 OA
ENDBRANCH  25  26
ENDBRANCH  24  25
ENDBRANCH  19  24
ENDBRANCH   1  17
BRANCH  13  32
ATOM     32  C   UNL     1      52.432  79.985  47.214  0.00  0.00    +0.101 C 
BRANCH  32  33
ATOM     33  C   UNL     1      53.388  80.778  48.040  0.00  0.00    +0.013 A 
ATOM     34  C   UNL     1      54.562  81.277  47.520  0.00  0.00    +0.099 A 
ATOM     35  N   UNL     1      55.410  81.987  48.282  0.00  0.00    -0.210 NA
ATOM     36  C   UNL     1      55.195  82.267  49.580  0.00  0.00    +0.225 A 
ATOM     37  C   UNL     1      54.019  81.771  50.107  0.00  0.00    +0.057 A 
ATOM     38  C   UNL     1      53.122  81.038  49.366  0.00  0.00    +0.003 A 
BRANCH  36  39
ATOM     39  O   UNL     1      56.087  83.005  50.346  0.00  0.00    -0.456 OA
ATOM     40  C   UNL     1      57.473  82.886  50.026  0.00  0.00    +0.254 C 
ENDBRANCH  36  39
ENDBRANCH  32  33
ENDBRANCH  13  32
TORSDOF 7
