REMARK  Name = Sennoside_b
REMARK  9 active torsions:
REMARK  status: ('A' for Active; 'I' for Inactive)
REMARK    1  A    between atoms: C_5  and  O_7
REMARK    2  A    between atoms: O_7  and  C_8
REMARK    3  A    between atoms: C_12  and  C_14
REMARK    4  A    between atoms: C_23  and  C_24
REMARK    5  A    between atoms: C_27  and  O_31
REMARK    6  A    between atoms: O_31  and  C_32
REMARK    7  A    between atoms: C_36  and  C_38
REMARK    8  A    between atoms: C_48  and  C_52
REMARK    9  A    between atoms: C_56  and  C_60
REMARK                            x       y       z     vdW  Elec       q    Type
REMARK                         _______ _______ _______ _____ _____    ______ ____
ROOT
ATOM      1  C   UNL     1      49.908  75.277  41.366  0.00  0.00    +0.003 A 
ATOM      2  C   UNL     1      49.142  76.417  41.179  0.00  0.00    -0.004 A 
ATOM      3  C   UNL     1      49.083  77.368  42.147  0.00  0.00    -0.012 A 
ATOM      4  C   UNL     1      49.818  77.172  43.307  0.00  0.00    +0.069 A 
ATOM      5  C   UNL     1      50.598  76.028  43.530  0.00  0.00    +0.144 A 
ATOM      6  C   UNL     1      50.639  75.070  42.541  0.00  0.00    +0.037 A 
ATOM      7  C   UNL     1      50.158  78.338  44.163  0.00  0.00    +0.201 C 
ATOM      8  O   UNL     1      50.791  78.260  45.225  0.00  0.00    -0.286 OA
ATOM      9  C   UNL     1      49.683  79.655  43.661  0.00  0.00    +0.074 A 
ATOM     10  C   UNL     1      48.967  79.725  42.495  0.00  0.00    -0.011 A 
ATOM     11  C   UNL     1      48.136  78.499  42.232  0.00  0.00    +0.053 C 
ATOM     12  C   UNL     1      48.828  80.899  41.740  0.00  0.00    +0.003 A 
ATOM     13  C   UNL     1      49.445  82.030  42.236  0.00  0.00    +0.083 A 
ATOM     14  C   UNL     1      50.157  81.991  43.412  0.00  0.00    +0.049 A 
ATOM     15  C   UNL     1      50.295  80.813  44.149  0.00  0.00    +0.199 A 
ATOM     16  O   UNL     1      50.993  80.719  45.323  0.00  0.00    -0.286 OA
ENDROOT
BRANCH  11  17
ATOM     17  C   UNL     1      47.089  78.683  41.288  0.00  0.00    +0.053 C 
ATOM     18  C   UNL     1      45.678  78.386  41.620  0.00  0.00    -0.012 A 
ATOM     19  C   UNL     1      44.837  78.331  40.512  0.00  0.00    +0.069 A 
ATOM     20  C   UNL     1      43.526  77.834  40.571  0.00  0.00    +0.144 A 
ATOM     21  C   UNL     1      43.107  77.411  41.807  0.00  0.00    +0.037 A 
ATOM     22  C   UNL     1      43.951  77.483  42.920  0.00  0.00    +0.003 A 
ATOM     23  C   UNL     1      45.221  77.963  42.843  0.00  0.00    -0.004 A 
ATOM     24  C   UNL     1      45.139  79.180  39.333  0.00  0.00    +0.201 C 
ATOM     25  O   UNL     1      44.433  79.150  38.315  0.00  0.00    -0.286 OA
ATOM     26  C   UNL     1      46.332  80.051  39.465  0.00  0.00    +0.074 A 
ATOM     27  C   UNL     1      47.091  80.027  40.611  0.00  0.00    -0.011 A 
ATOM     28  C   UNL     1      47.941  81.058  40.969  0.00  0.00    +0.003 A 
ATOM     29  C   UNL     1      48.024  82.150  40.103  0.00  0.00    +0.083 A 
ATOM     30  C   UNL     1      47.291  82.205  38.938  0.00  0.00    +0.049 A 
ATOM     31  C   UNL     1      46.444  81.157  38.618  0.00  0.00    +0.199 A 
ATOM     32  O   UNL     1      45.685  81.167  37.456  0.00  0.00    -0.286 OA
BRANCH  29  33
ATOM     33  C   UNL     1      48.922  83.242  40.470  0.00  0.00    +0.388 C 
ATOM     34  O   UNL     1      49.737  83.140  41.422  0.00  0.00    -0.241 OA
ATOM     35  O   UNL     1      48.913  84.435  39.782  0.00  0.00    -0.241 OA
ENDBRANCH  29  33
BRANCH  20  36
ATOM     36  O   UNL     1      42.759  77.799  39.429  0.00  0.00    -0.450 OA
BRANCH  36  37
ATOM     37  C   UNL     1      41.386  77.980  39.309  0.00  0.00    +0.322 C 
ATOM     38  C   UNL     1      40.924  78.069  37.871  0.00  0.00    +0.254 C 
ATOM     39  C   UNL     1      40.933  76.770  37.136  0.00  0.00    +0.221 C 
ATOM     40  C   UNL     1      40.560  75.649  38.045  0.00  0.00    +0.215 C 
ATOM     41  C   UNL     1      39.843  76.254  39.232  0.00  0.00    +0.185 C 
ATOM     42  O   UNL     1      40.683  77.011  40.023  0.00  0.00    -0.316 OA
ATOM     43  O   UNL     1      41.655  74.882  38.438  0.00  0.00    -0.218 OA
ATOM     44  O   UNL     1      42.108  76.542  36.438  0.00  0.00    -0.217 OA
ATOM     45  O   UNL     1      41.774  78.953  37.206  0.00  0.00    -0.213 OA
BRANCH  41  46
ATOM     46  C   UNL     1      39.297  75.115  40.065  0.00  0.00    +0.214 C 
ATOM     47  O   UNL     1      40.366  74.311  40.513  0.00  0.00    -0.218 OA
ENDBRANCH  41  46
ENDBRANCH  36  37
ENDBRANCH  20  36
ENDBRANCH  11  17
BRANCH  13  48
ATOM     48  C   UNL     1      49.305  83.271  41.456  0.00  0.00    +0.388 C 
ATOM     49  O   UNL     1      48.281  83.475  40.746  0.00  0.00    -0.241 OA
ATOM     50  O   UNL     1      50.276  84.252  41.467  0.00  0.00    -0.241 OA
ENDBRANCH  13  48
BRANCH   5  51
ATOM     51  O   UNL     1      51.293  75.889  44.711  0.00  0.00    -0.450 OA
BRANCH  51  52
ATOM     52  C   UNL     1      52.588  75.394  44.889  0.00  0.00    +0.322 C 
ATOM     53  C   UNL     1      52.545  74.446  46.074  0.00  0.00    +0.254 C 
ATOM     54  C   UNL     1      52.933  73.074  45.569  0.00  0.00    +0.221 C 
ATOM     55  C   UNL     1      54.324  73.221  44.938  0.00  0.00    +0.215 C 
ATOM     56  C   UNL     1      54.167  74.139  43.742  0.00  0.00    +0.185 C 
ATOM     57  O   UNL     1      52.928  74.737  43.700  0.00  0.00    -0.316 OA
ATOM     58  O   UNL     1      55.139  73.807  45.875  0.00  0.00    -0.218 OA
ATOM     59  O   UNL     1      52.979  72.201  46.639  0.00  0.00    -0.217 OA
ATOM     60  O   UNL     1      53.408  74.852  47.093  0.00  0.00    -0.213 OA
BRANCH  56  61
ATOM     61  C   UNL     1      55.301  75.156  43.686  0.00  0.00    +0.214 C 
ATOM     62  O   UNL     1      56.177  74.870  42.643  0.00  0.00    -0.218 OA
ENDBRANCH  56  61
ENDBRANCH  51  52
ENDBRANCH   5  51
TORSDOF 9
