REMARK  Name = Sennoside_a
REMARK  9 active torsions:
REMARK  status: ('A' for Active; 'I' for Inactive)
REMARK    1  A    between atoms: C_5  and  O_7
REMARK    2  A    between atoms: O_7  and  C_8
REMARK    3  A    between atoms: C_12  and  C_14
REMARK    4  A    between atoms: C_23  and  C_24
REMARK    5  A    between atoms: C_27  and  O_31
REMARK    6  A    between atoms: O_31  and  C_32
REMARK    7  A    between atoms: C_36  and  C_38
REMARK    8  A    between atoms: C_48  and  C_52
REMARK    9  A    between atoms: C_56  and  C_60
REMARK                            x       y       z     vdW  Elec       q    Type
REMARK                         _______ _______ _______ _____ _____    ______ ____
ROOT
ATOM      1  C   UNL     1      48.999  74.734  41.344  0.00  0.00    +0.003 A 
ATOM      2  C   UNL     1      48.479  76.009  41.196  0.00  0.00    -0.004 A 
ATOM      3  C   UNL     1      48.732  76.928  42.181  0.00  0.00    -0.012 A 
ATOM      4  C   UNL     1      49.510  76.588  43.296  0.00  0.00    +0.069 A 
ATOM      5  C   UNL     1      50.040  75.307  43.467  0.00  0.00    +0.144 A 
ATOM      6  C   UNL     1      49.763  74.405  42.470  0.00  0.00    +0.037 A 
ATOM      7  C   UNL     1      50.102  77.670  44.113  0.00  0.00    +0.201 C 
ATOM      8  O   UNL     1      50.781  77.437  45.117  0.00  0.00    -0.286 OA
ATOM      9  C   UNL     1      49.832  79.032  43.663  0.00  0.00    +0.074 A 
ATOM     10  C   UNL     1      49.033  79.281  42.529  0.00  0.00    -0.011 A 
ATOM     11  C   UNL     1      48.028  78.232  42.308  0.00  0.00    +0.053 C 
ATOM     12  C   UNL     1      49.118  80.492  41.882  0.00  0.00    +0.003 A 
ATOM     13  C   UNL     1      49.957  81.495  42.319  0.00  0.00    +0.083 A 
ATOM     14  C   UNL     1      50.739  81.266  43.443  0.00  0.00    +0.049 A 
ATOM     15  C   UNL     1      50.679  80.060  44.105  0.00  0.00    +0.199 A 
ATOM     16  O   UNL     1      51.467  79.853  45.225  0.00  0.00    -0.286 OA
ENDROOT
BRANCH  11  17
ATOM     17  C   UNL     1      46.932  78.493  41.412  0.00  0.00    +0.053 C 
ATOM     18  C   UNL     1      45.559  78.067  41.831  0.00  0.00    -0.012 A 
ATOM     19  C   UNL     1      44.681  77.970  40.772  0.00  0.00    +0.069 A 
ATOM     20  C   UNL     1      43.436  77.332  40.947  0.00  0.00    +0.144 A 
ATOM     21  C   UNL     1      43.145  76.840  42.196  0.00  0.00    +0.037 A 
ATOM     22  C   UNL     1      44.045  76.966  43.253  0.00  0.00    +0.003 A 
ATOM     23  C   UNL     1      45.273  77.584  43.087  0.00  0.00    -0.004 A 
ATOM     24  C   UNL     1      44.842  78.867  39.596  0.00  0.00    +0.201 C 
ATOM     25  O   UNL     1      44.091  78.804  38.628  0.00  0.00    -0.286 OA
ATOM     26  C   UNL     1      45.959  79.834  39.680  0.00  0.00    +0.074 A 
ATOM     27  C   UNL     1      46.782  79.819  40.807  0.00  0.00    -0.011 A 
ATOM     28  C   UNL     1      47.532  80.950  41.142  0.00  0.00    +0.003 A 
ATOM     29  C   UNL     1      47.455  82.062  40.332  0.00  0.00    +0.083 A 
ATOM     30  C   UNL     1      46.667  82.107  39.203  0.00  0.00    +0.049 A 
ATOM     31  C   UNL     1      45.909  80.973  38.877  0.00  0.00    +0.199 A 
ATOM     32  O   UNL     1      45.096  80.955  37.754  0.00  0.00    -0.286 OA
BRANCH  29  33
ATOM     33  C   UNL     1      48.280  83.233  40.725  0.00  0.00    +0.388 C 
ATOM     34  O   UNL     1      48.740  83.297  41.873  0.00  0.00    -0.241 OA
ATOM     35  O   UNL     1      48.553  84.258  39.850  0.00  0.00    -0.241 OA
ENDBRANCH  29  33
BRANCH  20  36
ATOM     36  O   UNL     1      42.608  77.246  39.853  0.00  0.00    -0.450 OA
BRANCH  36  37
ATOM     37  C   UNL     1      41.228  77.338  39.824  0.00  0.00    +0.322 C 
ATOM     38  C   UNL     1      40.541  76.000  39.923  0.00  0.00    +0.254 C 
ATOM     39  C   UNL     1      40.794  75.180  38.692  0.00  0.00    +0.221 C 
ATOM     40  C   UNL     1      40.762  76.067  37.457  0.00  0.00    +0.215 C 
ATOM     41  C   UNL     1      39.999  77.336  37.842  0.00  0.00    +0.185 C 
ATOM     42  O   UNL     1      40.694  78.061  38.775  0.00  0.00    -0.316 OA
ATOM     43  O   UNL     1      40.033  75.442  36.467  0.00  0.00    -0.218 OA
ATOM     44  O   UNL     1      42.033  74.565  38.788  0.00  0.00    -0.217 OA
ATOM     45  O   UNL     1      41.019  75.314  41.067  0.00  0.00    -0.213 OA
BRANCH  41  46
ATOM     46  C   UNL     1      39.799  78.169  36.602  0.00  0.00    +0.214 C 
ATOM     47  O   UNL     1      40.839  77.975  35.675  0.00  0.00    -0.218 OA
ENDBRANCH  41  46
ENDBRANCH  36  37
ENDBRANCH  20  36
ENDBRANCH  11  17
BRANCH  13  48
ATOM     48  C   UNL     1      49.975  82.735  41.577  0.00  0.00    +0.388 C 
ATOM     49  O   UNL     1      49.086  83.077  40.785  0.00  0.00    -0.241 OA
ATOM     50  O   UNL     1      51.059  83.600  41.765  0.00  0.00    -0.241 OA
ENDBRANCH  13  48
BRANCH   5  51
ATOM     51  O   UNL     1      50.760  75.002  44.538  0.00  0.00    -0.450 OA
BRANCH  51  52
ATOM     52  C   UNL     1      51.853  74.264  44.874  0.00  0.00    +0.322 C 
ATOM     53  C   UNL     1      52.176  73.119  43.881  0.00  0.00    +0.254 C 
ATOM     54  C   UNL     1      53.275  72.318  44.508  0.00  0.00    +0.221 C 
ATOM     55  C   UNL     1      54.141  73.108  45.469  0.00  0.00    +0.215 C 
ATOM     56  C   UNL     1      54.153  74.590  45.178  0.00  0.00    +0.185 C 
ATOM     57  O   UNL     1      52.950  75.094  44.828  0.00  0.00    -0.316 OA
ATOM     58  O   UNL     1      53.769  72.908  46.812  0.00  0.00    -0.218 OA
ATOM     59  O   UNL     1      54.075  71.637  43.582  0.00  0.00    -0.217 OA
ATOM     60  O   UNL     1      52.546  73.567  42.651  0.00  0.00    -0.213 OA
BRANCH  56  61
ATOM     61  C   UNL     1      55.185  74.938  44.126  0.00  0.00    +0.214 C 
ATOM     62  O   UNL     1      55.428  76.317  44.089  0.00  0.00    -0.218 OA
ENDBRANCH  56  61
ENDBRANCH  51  52
ENDBRANCH   5  51
TORSDOF 9
