REMARK  Name = Sertaconazole
REMARK  6 active torsions:
REMARK  status: ('A' for Active; 'I' for Inactive)
REMARK    1  A    between atoms: C_10  and  C_11
REMARK    2  A    between atoms: C_11  and  O_12
REMARK    3  A    between atoms: O_12  and  C_13
REMARK    4  A    between atoms: C_13  and  C_14
REMARK    5  A    between atoms: C_13  and  C_20
REMARK    6  A    between atoms: C_14  and  N_15
REMARK                            x       y       z     vdW  Elec       q    Type
REMARK                         _______ _______ _______ _____ _____    ______ ____
ROOT
ATOM      1  C   UNL     1      48.472  80.934  41.773  0.00  0.00    +0.161 C 
ENDROOT
BRANCH   1   2
ATOM      2  C   UNL     1      48.252  82.325  42.234  0.00  0.00    +0.017 A 
ATOM      3  C   UNL     1      48.424  82.769  43.524  0.00  0.00    +0.057 A 
ATOM      4  C   UNL     1      48.202  84.085  43.917  0.00  0.00    +0.023 A 
ATOM      5  C   UNL     1      47.793  84.988  42.978  0.00  0.00    +0.058 A 
ATOM      6  C   UNL     1      47.612  84.591  41.691  0.00  0.00    +0.011 A 
ATOM      7  C   UNL     1      47.834  83.290  41.316  0.00  0.00    -0.000 A 
ATOM      8 CL   UNL     1      47.515  86.640  43.482  0.00  0.00    -0.082 Cl
ATOM      9 CL   UNL     1      48.962  81.582  44.722  0.00  0.00    -0.082 Cl
ENDBRANCH   1   2
BRANCH   1  10
ATOM     10  O   UNL     1      47.490  80.592  40.886  0.00  0.00    -0.345 OA
BRANCH  10  11
ATOM     11  C   UNL     1      46.416  79.936  41.424  0.00  0.00    +0.170 C 
BRANCH  11  21
ATOM     12  C   UNL     1      43.050  77.048  41.163  0.00  0.00    +0.001 A 
ATOM     13  C   UNL     1      44.106  77.903  41.312  0.00  0.00    +0.000 A 
ATOM     14  C   UNL     1      44.385  78.859  40.308  0.00  0.00    +0.006 A 
ATOM     15  C   UNL     1      43.548  78.853  39.229  0.00  0.00    +0.040 A 
ATOM     16  C   UNL     1      42.466  77.960  39.102  0.00  0.00    +0.064 A 
ATOM     17  C   UNL     1      42.198  77.031  40.084  0.00  0.00    +0.012 A 
ATOM     18 CL   UNL     1      41.518  78.117  37.650  0.00  0.00    -0.082 Cl
ATOM     19  S   UNL     1      44.165  80.099  38.239  0.00  0.00    -0.086 S 
ATOM     20  C   UNL     1      45.468  80.596  39.216  0.00  0.00    +0.034 A 
ATOM     21  C   UNL     1      45.389  79.768  40.306  0.00  0.00    +0.014 A 
ENDBRANCH  11  21
ENDBRANCH  10  11
ENDBRANCH   1  10
BRANCH   1  22
ATOM     22  C   UNL     1      49.819  80.745  41.085  0.00  0.00    +0.142 C 
BRANCH  22  23
ATOM     23  N   UNL     1      50.892  81.471  41.685  0.00  0.00    -0.305 N 
ATOM     24  C   UNL     1      51.287  82.706  41.350  0.00  0.00    +0.098 A 
ATOM     25  C   UNL     1      52.345  83.079  42.154  0.00  0.00    +0.119 A 
ATOM     26  N   UNL     1      52.582  82.053  42.978  0.00  0.00    -0.222 NA
ATOM     27  C   UNL     1      51.705  81.075  42.698  0.00  0.00    +0.179 A 
ENDBRANCH  22  23
ENDBRANCH   1  22
TORSDOF 6
