REMARK  Name = Setmelanotide
REMARK  18 active torsions:
REMARK  status: ('A' for Active; 'I' for Inactive)
REMARK    1  A    between atoms: C_6  and  C_73
REMARK    2  A    between atoms: C_10  and  C_66
REMARK    3  A    between atoms: C_14  and  C_59
REMARK    4  A    between atoms: C_18  and  C_49
REMARK    5  A    between atoms: C_22  and  C_46
REMARK    6  A    between atoms: C_27  and  N_31
REMARK    7  A    between atoms: C_32  and  C_34
REMARK    8  A    between atoms: C_34  and  C_35
REMARK    9  A    between atoms: C_34  and  N_42
REMARK   10  A    between atoms: C_35  and  C_36
REMARK   11  A    between atoms: C_36  and  C_37
REMARK   12  A    between atoms: C_37  and  N_38
REMARK   13  A    between atoms: C_49  and  C_50
REMARK   14  A    between atoms: C_59  and  C_60
REMARK   15  A    between atoms: C_60  and  C_61
REMARK   16  A    between atoms: C_61  and  N_62
REMARK   17  A    between atoms: C_66  and  C_67
REMARK   18  A    between atoms: C_73  and  C_74
REMARK                            x       y       z     vdW  Elec       q    Type
REMARK                         _______ _______ _______ _____ _____    ______ ____
ROOT
ATOM      1  C   UNL     1      43.936  80.022  40.052  0.00  0.00    +0.033 C 
ATOM      2  C   UNL     1      45.013  79.008  40.454  0.00  0.00    +0.173 C 
ATOM      3  C   UNL     1      46.319  79.345  39.847  0.00  0.00    +0.262 C 
ATOM      4  O   UNL     1      46.469  78.852  38.663  0.00  0.00    -0.271 OA
ATOM      5  N   UNL     1      47.383  80.088  40.345  0.00  0.00    -0.196 NA
ATOM      6  C   UNL     1      47.484  81.448  40.787  0.00  0.00    +0.179 C 
ATOM      7  C   UNL     1      47.211  81.583  42.240  0.00  0.00    +0.262 C 
ATOM      8  O   UNL     1      46.053  81.147  42.590  0.00  0.00    -0.271 OA
ATOM      9  N   UNL     1      48.052  82.119  43.234  0.00  0.00    -0.196 NA
ATOM     10  C   UNL     1      49.369  81.768  43.648  0.00  0.00    +0.177 C 
ATOM     11  C   UNL     1      49.508  80.300  43.861  0.00  0.00    +0.262 C 
ATOM     12  O   UNL     1      48.822  79.579  43.082  0.00  0.00    -0.271 OA
ATOM     13  N   UNL     1      50.311  79.656  44.817  0.00  0.00    -0.196 NA
ATOM     14  C   UNL     1      50.346  79.773  46.229  0.00  0.00    +0.173 C 
ATOM     15  C   UNL     1      48.996  79.767  46.867  0.00  0.00    +0.262 C 
ATOM     16  O   UNL     1      48.413  80.913  46.774  0.00  0.00    -0.271 OA
ATOM     17  N   UNL     1      48.326  78.748  47.511  0.00  0.00    -0.196 NA
ATOM     18  C   UNL     1      48.054  77.393  47.049  0.00  0.00    +0.177 C 
ATOM     19  C   UNL     1      47.112  77.396  45.907  0.00  0.00    +0.262 C 
ATOM     20  O   UNL     1      46.370  78.445  45.834  0.00  0.00    -0.271 OA
ATOM     21  N   UNL     1      46.996  76.384  44.966  0.00  0.00    -0.195 NA
ATOM     22  C   UNL     1      46.801  74.975  45.188  0.00  0.00    +0.186 C 
ATOM     23  C   UNL     1      45.428  74.705  45.755  0.00  0.00    +0.100 C 
ATOM     24  S   UNL     1      44.399  73.737  44.639  0.00  0.00    -0.080 S 
ATOM     25  S   UNL     1      44.262  74.742  42.774  0.00  0.00    -0.080 S 
ATOM     26  C   UNL     1      43.410  76.329  43.031  0.00  0.00    +0.100 C 
ATOM     27  C   UNL     1      42.856  76.835  41.692  0.00  0.00    +0.184 C 
ATOM     28  C   UNL     1      43.944  76.696  40.685  0.00  0.00    +0.263 C 
ATOM     29  O   UNL     1      44.337  75.489  40.501  0.00  0.00    -0.271 OA
ATOM     30  N   UNL     1      44.555  77.697  39.953  0.00  0.00    -0.196 NA
ENDROOT
BRANCH  27  31
ATOM     31  N   UNL     1      41.711  76.022  41.341  0.00  0.00    -0.195 NA
ATOM     32  C   UNL     1      40.743  76.368  40.367  0.00  0.00    +0.262 C 
ATOM     33  O   UNL     1      40.676  77.535  39.970  0.00  0.00    -0.271 OA
BRANCH  32  34
ATOM     34  C   UNL     1      39.778  75.354  39.790  0.00  0.00    +0.173 C 
BRANCH  34  35
ATOM     35  N   UNL     1      38.473  75.565  40.312  0.00  0.00    -0.198 NA
ATOM     36  C   UNL     1      37.908  74.731  41.329  0.00  0.00    +0.242 C 
ATOM     37  O   UNL     1      38.586  73.782  41.740  0.00  0.00    -0.273 OA
ATOM     38  C   UNL     1      36.561  74.983  41.878  0.00  0.00    +0.096 C 
ENDBRANCH  34  35
BRANCH  34  39
ATOM     39  C   UNL     1      39.897  75.388  38.311  0.00  0.00    +0.033 C 
BRANCH  39  40
ATOM     40  C   UNL     1      39.137  74.397  37.516  0.00  0.00    +0.029 C 
BRANCH  40  41
ATOM     41  C   UNL     1      39.886  73.689  36.430  0.00  0.00    +0.129 C 
BRANCH  41  42
ATOM     42  N   UNL     1      38.924  72.866  35.684  0.00  0.00    -0.234 NA
ATOM     43  C   UNL     1      38.305  73.233  34.644  0.00  0.00    +0.284 C 
ATOM     44  N   UNL     1      38.717  72.681  33.390  0.00  0.00    -0.104 NA
ATOM     45  N   UNL     1      37.232  74.146  34.642  0.00  0.00    -0.104 NA
ENDBRANCH  41  42
ENDBRANCH  40  41
ENDBRANCH  39  40
ENDBRANCH  34  39
ENDBRANCH  32  34
ENDBRANCH  27  31
BRANCH  22  46
ATOM     46  C   UNL     1      46.881  74.204  43.911  0.00  0.00    +0.281 C 
ATOM     47  O   UNL     1      47.809  73.386  43.776  0.00  0.00    -0.270 OA
ATOM     48  N   UNL     1      45.948  74.369  42.861  0.00  0.00    -0.086 NA
ENDBRANCH  22  46
BRANCH  18  49
ATOM     49  C   UNL     1      47.348  76.625  48.178  0.00  0.00    +0.059 C 
BRANCH  49  50
ATOM     50  C   UNL     1      47.986  77.005  49.478  0.00  0.00    +0.001 A 
ATOM     51  C   UNL     1      49.174  76.505  49.988  0.00  0.00    +0.095 A 
ATOM     52  N   UNL     1      49.392  77.105  51.170  0.00  0.00    -0.244 NA
ATOM     53  C   UNL     1      48.379  77.957  51.403  0.00  0.00    +0.081 A 
ATOM     54  C   UNL     1      48.134  78.795  52.446  0.00  0.00    +0.019 A 
ATOM     55  C   UNL     1      47.013  79.581  52.452  0.00  0.00    +0.002 A 
ATOM     56  C   UNL     1      46.093  79.561  51.417  0.00  0.00    +0.000 A 
ATOM     57  C   UNL     1      46.337  78.712  50.357  0.00  0.00    +0.001 A 
ATOM     58  C   UNL     1      47.465  77.921  50.349  0.00  0.00    +0.015 A 
ENDBRANCH  49  50
ENDBRANCH  18  49
BRANCH  14  59
ATOM     59  C   UNL     1      51.064  80.972  46.788  0.00  0.00    +0.033 C 
BRANCH  59  60
ATOM     60  C   UNL     1      52.106  81.537  45.861  0.00  0.00    +0.029 C 
BRANCH  60  61
ATOM     61  C   UNL     1      52.057  80.928  44.502  0.00  0.00    +0.129 C 
BRANCH  61  62
ATOM     62  N   UNL     1      51.416  81.921  43.623  0.00  0.00    -0.234 NA
ATOM     63  C   UNL     1      51.370  81.778  42.360  0.00  0.00    +0.284 C 
ATOM     64  N   UNL     1      50.154  81.970  41.668  0.00  0.00    -0.104 NA
ATOM     65  N   UNL     1      52.535  81.429  41.646  0.00  0.00    -0.104 NA
ENDBRANCH  61  62
ENDBRANCH  60  61
ENDBRANCH  59  60
ENDBRANCH  14  59
BRANCH  10  66
ATOM     66  C   UNL     1      50.488  82.318  42.789  0.00  0.00    +0.057 C 
BRANCH  66  67
ATOM     67  C   UNL     1      50.087  83.586  42.148  0.00  0.00    -0.020 A 
ATOM     68  C   UNL     1      49.173  84.435  42.773  0.00  0.00    -0.004 A 
ATOM     69  C   UNL     1      48.762  85.628  42.246  0.00  0.00    -0.000 A 
ATOM     70  C   UNL     1      49.279  86.023  41.021  0.00  0.00    -0.000 A 
ATOM     71  C   UNL     1      50.188  85.200  40.380  0.00  0.00    -0.000 A 
ATOM     72  C   UNL     1      50.592  83.982  40.941  0.00  0.00    -0.004 A 
ENDBRANCH  66  67
ENDBRANCH  10  66
BRANCH   6  73
ATOM     73  C   UNL     1      46.676  82.452  40.010  0.00  0.00    +0.079 C 
BRANCH  73  74
ATOM     74  C   UNL     1      46.269  81.986  38.654  0.00  0.00    +0.082 A 
ATOM     75  C   UNL     1      45.666  82.668  37.623  0.00  0.00    +0.115 A 
ATOM     76  N   UNL     1      45.500  81.869  36.545  0.00  0.00    -0.221 NA
ATOM     77  C   UNL     1      46.006  80.685  36.915  0.00  0.00    +0.199 A 
ATOM     78  N   UNL     1      46.471  80.724  38.163  0.00  0.00    -0.227 NA
ENDBRANCH  73  74
ENDBRANCH   6  73
TORSDOF 18
