REMARK  Name = SILODOSIN
REMARK  14 active torsions:
REMARK  status: ('A' for Active; 'I' for Inactive)
REMARK    1  A    between atoms: C_2  and  C_3
REMARK    2  A    between atoms: C_2  and  N_20
REMARK    3  A    between atoms: C_3  and  C_4
REMARK    4  A    between atoms: C_8  and  C_10
REMARK    5  A    between atoms: N_13  and  C_16
REMARK    6  A    between atoms: C_16  and  C_17
REMARK    7  A    between atoms: C_17  and  C_18
REMARK    8  A    between atoms: N_20  and  C_21
REMARK    9  A    between atoms: C_21  and  C_22
REMARK   10  A    between atoms: C_22  and  O_23
REMARK   11  A    between atoms: O_23  and  C_24
REMARK   12  A    between atoms: C_29  and  O_30
REMARK   13  A    between atoms: O_30  and  C_31
REMARK   14  A    between atoms: C_31  and  C_32
REMARK                            x       y       z     vdW  Elec       q    Type
REMARK                         _______ _______ _______ _____ _____    ______ ____
ROOT
ATOM      1  C   UNL     1      49.246  84.644  43.299  0.00  0.00    +0.019 C 
ATOM      2  C   UNL     1      48.511  83.368  43.027  0.00  0.00    +0.077 C 
ENDROOT
BRANCH   2   3
ATOM      3  C   UNL     1      47.044  83.406  43.274  0.00  0.00    +0.044 C 
BRANCH   3   4
ATOM      4  C   UNL     1      46.292  82.458  42.405  0.00  0.00    -0.021 A 
ATOM      5  C   UNL     1      45.724  81.295  42.886  0.00  0.00    -0.007 A 
ATOM      6  C   UNL     1      45.025  80.429  42.072  0.00  0.00    -0.007 A 
ATOM      7  C   UNL     1      44.893  80.742  40.721  0.00  0.00    +0.048 A 
ATOM      8  C   UNL     1      45.439  81.886  40.217  0.00  0.00    +0.069 A 
ATOM      9  C   UNL     1      46.131  82.727  41.058  0.00  0.00    +0.002 A 
ATOM     10  N   UNL     1      44.198  79.628  40.106  0.00  0.00    -0.307 N 
ATOM     11  C   UNL     1      43.311  79.117  41.168  0.00  0.00    +0.095 C 
ATOM     12  C   UNL     1      44.283  79.145  42.365  0.00  0.00    +0.049 C 
BRANCH   8  13
ATOM     13  C   UNL     1      45.209  82.296  38.851  0.00  0.00    +0.285 C 
ATOM     14  O   UNL     1      44.173  82.111  38.174  0.00  0.00    -0.267 OA
ATOM     15  N   UNL     1      46.286  82.994  38.188  0.00  0.00    -0.084 NA
ENDBRANCH   8  13
BRANCH  10  16
ATOM     16  C   UNL     1      44.351  79.132  38.788  0.00  0.00    +0.093 C 
BRANCH  16  17
ATOM     17  C   UNL     1      42.950  78.653  38.287  0.00  0.00    +0.057 C 
BRANCH  17  18
ATOM     18  C   UNL     1      43.135  78.177  36.865  0.00  0.00    +0.184 C 
ATOM     19  O   UNL     1      42.949  76.779  36.852  0.00  0.00    -0.220 OA
ENDBRANCH  17  18
ENDBRANCH  16  17
ENDBRANCH  10  16
ENDBRANCH   3   4
ENDBRANCH   2   3
BRANCH   2  20
ATOM     20  N   UNL     1      49.095  82.263  43.764  0.00  0.00    -0.215 NA
BRANCH  20  21
ATOM     21  C   UNL     1      48.788  81.010  43.174  0.00  0.00    +0.136 C 
BRANCH  21  22
ATOM     22  C   UNL     1      49.828  79.933  43.236  0.00  0.00    +0.224 C 
BRANCH  22  23
ATOM     23  O   UNL     1      50.769  79.869  42.281  0.00  0.00    -0.471 OA
BRANCH  23  24
ATOM     24  C   UNL     1      51.761  79.058  41.919  0.00  0.00    +0.172 A 
ATOM     25  C   UNL     1      51.743  77.697  42.062  0.00  0.00    +0.040 A 
ATOM     26  C   UNL     1      52.836  76.933  41.641  0.00  0.00    +0.003 A 
ATOM     27  C   UNL     1      53.936  77.527  41.084  0.00  0.00    +0.003 A 
ATOM     28  C   UNL     1      53.946  78.916  40.943  0.00  0.00    +0.040 A 
ATOM     29  C   UNL     1      52.906  79.717  41.334  0.00  0.00    +0.173 A 
BRANCH  29  30
ATOM     30  O   UNL     1      52.804  81.060  41.241  0.00  0.00    -0.463 OA
BRANCH  30  31
ATOM     31  C   UNL     1      53.688  82.000  40.817  0.00  0.00    +0.308 C 
BRANCH  31  32
ATOM     32  C   UNL     1      53.265  83.433  40.793  0.00  0.00    +0.438 C 
ATOM     33  F   UNL     1      54.178  84.376  40.521  0.00  0.00    -0.166 F 
ATOM     34  F   UNL     1      52.135  83.556  39.974  0.00  0.00    -0.166 F 
ATOM     35  F   UNL     1      52.762  83.724  42.081  0.00  0.00    -0.166 F 
ENDBRANCH  31  32
ENDBRANCH  30  31
ENDBRANCH  29  30
ENDBRANCH  23  24
ENDBRANCH  22  23
ENDBRANCH  21  22
ENDBRANCH  20  21
ENDBRANCH   2  20
TORSDOF 14
