REMARK  Name = Simeprevir
REMARK  8 active torsions:
REMARK  status: ('A' for Active; 'I' for Inactive)
REMARK    1  A    between atoms: C_3  and  O_51
REMARK    2  A    between atoms: C_9  and  C_43
REMARK    3  A    between atoms: C_11  and  O_12
REMARK    4  A    between atoms: O_12  and  C_13
REMARK    5  A    between atoms: C_29  and  C_33
REMARK    6  A    between atoms: N_35  and  S_36
REMARK    7  A    between atoms: S_36  and  C_39
REMARK    8  A    between atoms: C_45  and  C_48
REMARK                            x       y       z     vdW  Elec       q    Type
REMARK                         _______ _______ _______ _____ _____    ______ ____
ROOT
ATOM      1  C   UNL     1      46.562  78.160  42.147  0.00  0.00    +0.167 C 
ATOM      2  C   UNL     1      48.029  78.604  42.442  0.00  0.00    +0.053 C 
ATOM      3  C   UNL     1      48.455  77.311  43.154  0.00  0.00    +0.090 C 
ATOM      4  C   UNL     1      47.364  77.140  44.152  0.00  0.00    +0.089 C 
ATOM      5  C   UNL     1      46.148  77.909  43.611  0.00  0.00    +0.053 C 
ATOM      6  C   UNL     1      47.045  75.678  44.283  0.00  0.00    +0.226 C 
ATOM      7  O   UNL     1      46.316  75.122  43.400  0.00  0.00    -0.275 OA
ATOM      8  N   UNL     1      47.518  74.868  45.349  0.00  0.00    -0.278 N 
ATOM      9  C   UNL     1      47.532  75.256  46.746  0.00  0.00    +0.093 C 
ATOM     10  C   UNL     1      48.697  74.675  47.513  0.00  0.00    +0.022 C 
ATOM     11  C   UNL     1      49.545  75.711  48.215  0.00  0.00    +0.006 C 
ATOM     12  C   UNL     1      49.572  76.956  47.332  0.00  0.00    +0.026 C 
ATOM     13  C   UNL     1      50.921  77.566  47.317  0.00  0.00    -0.031 C 
ATOM     14  C   UNL     1      51.314  78.721  46.882  0.00  0.00    -0.029 C 
ATOM     15  C   UNL     1      50.641  79.849  46.259  0.00  0.00    +0.051 C 
ATOM     16  C   UNL     1      49.247  79.953  45.856  0.00  0.00    +0.036 C 
ATOM     17  C   UNL     1      50.192  79.549  44.813  0.00  0.00    +0.154 C 
ATOM     18  N   UNL     1      50.492  78.180  44.473  0.00  0.00    -0.200 NA
ATOM     19  C   UNL     1      49.823  77.310  43.624  0.00  0.00    +0.242 C 
ATOM     20  O   UNL     1      50.553  76.332  43.179  0.00  0.00    -0.273 OA
ATOM     21  C   UNL     1      48.035  73.522  45.044  0.00  0.00    +0.115 C 
ENDROOT
BRANCH  17  22
ATOM     22  C   UNL     1      50.654  80.561  43.796  0.00  0.00    +0.280 C 
ATOM     23  O   UNL     1      51.189  80.149  42.729  0.00  0.00    -0.270 OA
ATOM     24  N   UNL     1      50.521  81.954  43.967  0.00  0.00    -0.062 NA
BRANCH  24  25
ATOM     25  S   UNL     1      51.357  83.029  42.881  0.00  0.00    +0.074 S 
ATOM     26  O   UNL     1      51.369  84.416  43.460  0.00  0.00    -0.153 OA
ATOM     27  O   UNL     1      52.797  82.607  42.720  0.00  0.00    -0.153 OA
BRANCH  25  28
ATOM     28  C   UNL     1      50.556  83.092  41.303  0.00  0.00    +0.151 C 
ATOM     29  C   UNL     1      50.001  84.379  40.795  0.00  0.00    +0.027 C 
ATOM     30  C   UNL     1      51.241  83.788  40.178  0.00  0.00    +0.027 C 
ENDBRANCH  25  28
ENDBRANCH  24  25
ENDBRANCH  17  22
BRANCH   1  31
ATOM     31  O   UNL     1      45.852  78.973  41.472  0.00  0.00    -0.479 OA
BRANCH  31  42
ATOM     32  C   UNL     1      44.037  83.466  37.777  0.00  0.00    +0.036 C 
ATOM     33  C   UNL     1      44.859  82.896  38.856  0.00  0.00    +0.030 A 
ATOM     34  C   UNL     1      45.798  83.597  39.527  0.00  0.00    +0.136 A 
ATOM     35  C   UNL     1      46.549  83.002  40.541  0.00  0.00    +0.037 A 
ATOM     36  C   UNL     1      46.339  81.664  40.878  0.00  0.00    +0.008 A 
ATOM     37  C   UNL     1      45.383  80.936  40.200  0.00  0.00    +0.052 A 
ATOM     38  C   UNL     1      44.655  81.557  39.199  0.00  0.00    +0.083 A 
ATOM     39  N   UNL     1      43.738  80.822  38.550  0.00  0.00    -0.243 NA
ATOM     40  C   UNL     1      43.504  79.537  38.827  0.00  0.00    +0.108 A 
ATOM     41  C   UNL     1      44.192  78.914  39.787  0.00  0.00    +0.058 A 
ATOM     42  C   UNL     1      45.192  79.585  40.547  0.00  0.00    +0.141 A 
BRANCH  40  43
ATOM     43  C   UNL     1      42.449  78.841  38.036  0.00  0.00    +0.128 A 
ATOM     44  N   UNL     1      41.476  79.371  37.328  0.00  0.00    -0.241 NA
ATOM     45  C   UNL     1      40.641  78.600  36.708  0.00  0.00    +0.066 A 
ATOM     46  C   UNL     1      40.819  77.242  36.825  0.00  0.00    +0.052 A 
ATOM     47  S   UNL     1      42.197  77.165  37.834  0.00  0.00    -0.065 S 
BRANCH  45  48
ATOM     48  C   UNL     1      39.499  79.162  35.879  0.00  0.00    +0.041 C 
ATOM     49  C   UNL     1      39.693  80.648  35.669  0.00  0.00    +0.006 C 
ATOM     50  C   UNL     1      38.192  78.989  36.631  0.00  0.00    +0.006 C 
ENDBRANCH  45  48
ENDBRANCH  40  43
BRANCH  34  51
ATOM     51  O   UNL     1      45.994  84.938  39.174  0.00  0.00    -0.472 OA
ATOM     52  C   UNL     1      46.901  85.784  39.863  0.00  0.00    +0.252 C 
ENDBRANCH  34  51
ENDBRANCH  31  42
ENDBRANCH   1  31
TORSDOF 8
