REMARK  Name = Simvastatin
REMARK  7 active torsions:
REMARK  status: ('A' for Active; 'I' for Inactive)
REMARK    1  A    between atoms: C_2  and  C_3
REMARK    2  A    between atoms: C_3  and  C_6
REMARK    3  A    between atoms: C_6  and  O_8
REMARK    4  A    between atoms: O_8  and  C_9
REMARK    5  A    between atoms: C_15  and  C_20
REMARK    6  A    between atoms: C_20  and  C_21
REMARK    7  A    between atoms: C_21  and  C_22
REMARK                            x       y       z     vdW  Elec       q    Type
REMARK                         _______ _______ _______ _____ _____    ______ ____
ROOT
ATOM      1  C   UNL     1      49.066  81.229  42.592  0.00  0.00    +0.173 C 
ATOM      2  C   UNL     1      49.139  82.108  43.846  0.00  0.00    +0.048 C 
ATOM      3  C   UNL     1      49.704  83.439  43.488  0.00  0.00    +0.025 C 
ATOM      4  C   UNL     1      48.773  84.119  42.556  0.00  0.00    -0.030 C 
ATOM      5  C   UNL     1      48.231  83.375  41.584  0.00  0.00    -0.024 C 
ATOM      6  C   UNL     1      48.524  81.947  41.424  0.00  0.00    +0.062 C 
ATOM      7  C   UNL     1      47.434  81.258  40.656  0.00  0.00    +0.012 C 
ATOM      8  C   UNL     1      47.299  82.007  39.298  0.00  0.00    +0.022 C 
ATOM      9  C   UNL     1      46.910  83.404  39.574  0.00  0.00    -0.027 C 
ATOM     10  C   UNL     1      47.347  84.027  40.637  0.00  0.00    -0.009 C 
ATOM     11  C   UNL     1      46.261  81.389  38.417  0.00  0.00    +0.005 C 
ATOM     12  C   UNL     1      50.042  84.288  44.681  0.00  0.00    +0.005 C 
ENDROOT
BRANCH   1  13
ATOM     13  O   UNL     1      50.446  80.843  42.386  0.00  0.00    -0.452 OA
BRANCH  13  14
ATOM     14  C   UNL     1      50.886  79.686  42.990  0.00  0.00    +0.316 C 
ATOM     15  O   UNL     1      50.756  79.491  44.235  0.00  0.00    -0.250 OA
BRANCH  14  16
ATOM     16  C   UNL     1      51.544  78.591  42.214  0.00  0.00    +0.090 C 
ATOM     17  C   UNL     1      51.182  77.263  42.880  0.00  0.00    +0.011 C 
ATOM     18  C   UNL     1      53.034  78.786  42.217  0.00  0.00    +0.011 C 
BRANCH  16  20
ATOM     19  C   UNL     1      49.645  78.049  40.736  0.00  0.00    +0.001 C 
ATOM     20  C   UNL     1      51.054  78.554  40.786  0.00  0.00    +0.011 C 
ENDBRANCH  16  20
ENDBRANCH  14  16
ENDBRANCH  13  14
ENDBRANCH   1  13
BRANCH   7  21
ATOM     21  C   UNL     1      46.093  81.170  41.282  0.00  0.00    +0.004 C 
BRANCH  21  22
ATOM     22  C   UNL     1      45.432  79.833  41.341  0.00  0.00    +0.044 C 
BRANCH  22  23
ATOM     23  C   UNL     1      44.027  79.882  40.707  0.00  0.00    +0.171 C 
ATOM     24  C   UNL     1      43.231  78.646  40.904  0.00  0.00    +0.077 C 
ATOM     25  C   UNL     1      42.737  78.016  39.621  0.00  0.00    +0.167 C 
ATOM     26  C   UNL     1      42.183  79.068  38.669  0.00  0.00    +0.142 C 
ATOM     27  C   UNL     1      43.221  80.088  38.424  0.00  0.00    +0.319 C 
ATOM     28  O   UNL     1      43.216  80.855  37.428  0.00  0.00    -0.250 OA
ATOM     29  O   UNL     1      44.250  80.203  39.337  0.00  0.00    -0.452 OA
ATOM     30  O   UNL     1      43.670  77.227  38.983  0.00  0.00    -0.222 OA
ENDBRANCH  22  23
ENDBRANCH  21  22
ENDBRANCH   7  21
TORSDOF 7
