REMARK  Name = Siponimod
REMARK  10 active torsions:
REMARK  status: ('A' for Active; 'I' for Inactive)
REMARK    1  A    between atoms: C_2  and  C_3
REMARK    2  A    between atoms: C_4  and  C_30
REMARK    3  A    between atoms: C_7  and  C_9
REMARK    4  A    between atoms: N_10  and  O_11
REMARK    5  A    between atoms: O_11  and  C_12
REMARK    6  A    between atoms: C_12  and  C_13
REMARK    7  A    between atoms: C_15  and  C_25
REMARK    8  A    between atoms: C_16  and  C_19
REMARK    9  A    between atoms: C_30  and  N_31
REMARK   10  A    between atoms: C_33  and  C_35
REMARK                            x       y       z     vdW  Elec       q    Type
REMARK                         _______ _______ _______ _____ _____    ______ ____
ROOT
ATOM      1  C   UNL     1      44.125  78.549  40.435  0.00  0.00    +0.097 C 
ATOM      2  N   UNL     1      44.109  79.839  40.536  0.00  0.00    -0.087 NA
ATOM      3  C   UNL     1      45.203  77.772  41.097  0.00  0.00    +0.056 C 
ENDROOT
BRANCH   1   8
ATOM      4  C   UNL     1      41.435  76.073  39.519  0.00  0.00    -0.025 A 
ATOM      5  C   UNL     1      41.136  76.409  38.226  0.00  0.00    -0.010 A 
ATOM      6  C   UNL     1      41.846  77.472  37.663  0.00  0.00    -0.003 A 
ATOM      7  C   UNL     1      42.801  78.142  38.388  0.00  0.00    +0.001 A 
ATOM      8  C   UNL     1      43.111  77.814  39.692  0.00  0.00    +0.016 A 
ATOM      9  C   UNL     1      42.413  76.771  40.243  0.00  0.00    -0.003 A 
BRANCH   4  11
ATOM     10  C   UNL     1      41.377  73.638  39.930  0.00  0.00    +0.005 C 
ATOM     11  C   UNL     1      40.747  74.959  40.214  0.00  0.00    +0.026 C 
ENDBRANCH   4  11
BRANCH   5  12
ATOM     12  C   UNL     1      40.101  75.691  37.448  0.00  0.00    +0.099 C 
BRANCH  12  13
ATOM     13  N   UNL     1      38.959  76.526  37.283  0.00  0.00    -0.268 NA
ATOM     14  C   UNL     1      37.673  75.878  37.419  0.00  0.00    +0.085 C 
ATOM     15  C   UNL     1      37.153  76.745  36.306  0.00  0.00    +0.135 C 
ATOM     16  C   UNL     1      38.607  76.859  35.919  0.00  0.00    +0.085 C 
BRANCH  15  17
ATOM     17  C   UNL     1      36.298  76.058  35.311  0.00  0.00    +0.367 C 
ATOM     18  O   UNL     1      35.185  76.574  35.045  0.00  0.00    -0.246 OA
ATOM     19  O   UNL     1      36.645  74.889  34.658  0.00  0.00    -0.246 OA
ENDBRANCH  15  17
ENDBRANCH  12  13
ENDBRANCH   5  12
ENDBRANCH   1   8
BRANCH   2  20
ATOM     20  O   UNL     1      45.190  80.519  41.036  0.00  0.00    -0.373 OA
BRANCH  20  21
ATOM     21  C   UNL     1      46.091  81.111  40.136  0.00  0.00    +0.265 C 
BRANCH  21  22
ATOM     22  C   UNL     1      47.281  81.671  40.840  0.00  0.00    +0.024 A 
ATOM     23  C   UNL     1      47.178  82.701  41.750  0.00  0.00    +0.003 A 
ATOM     24  C   UNL     1      48.288  83.211  42.410  0.00  0.00    +0.067 A 
ATOM     25  C   UNL     1      49.490  82.647  42.117  0.00  0.00    -0.019 A 
ATOM     26  C   UNL     1      49.624  81.599  41.196  0.00  0.00    -0.005 A 
ATOM     27  C   UNL     1      48.505  81.113  40.556  0.00  0.00    -0.001 A 
BRANCH  25  28
ATOM     28  C   UNL     1      50.706  83.149  42.780  0.00  0.00    +0.022 C 
ATOM     29  C   UNL     1      51.641  83.686  41.743  0.00  0.00    +0.004 C 
ATOM     30  C   UNL     1      52.962  84.143  42.329  0.00  0.00    +0.000 C 
ATOM     31  C   UNL     1      53.511  83.171  43.343  0.00  0.00    +0.000 C 
ATOM     32  C   UNL     1      52.815  81.839  43.102  0.00  0.00    +0.000 C 
ATOM     33  C   UNL     1      51.361  81.990  43.499  0.00  0.00    +0.004 C 
ENDBRANCH  25  28
BRANCH  24  34
ATOM     34  C   UNL     1      48.153  84.291  43.372  0.00  0.00    +0.418 C 
ATOM     35  F   UNL     1      48.828  84.039  44.552  0.00  0.00    -0.166 F 
ATOM     36  F   UNL     1      48.810  85.416  42.843  0.00  0.00    -0.166 F 
ATOM     37  F   UNL     1      46.866  84.713  43.593  0.00  0.00    -0.166 F 
ENDBRANCH  24  34
ENDBRANCH  21  22
ENDBRANCH  20  21
ENDBRANCH   2  20
TORSDOF 10
