REMARK  Name = Sirolimus
REMARK  6 active torsions:
REMARK  status: ('A' for Active; 'I' for Inactive)
REMARK    1  A    between atoms: C_7  and  O_64
REMARK    2  A    between atoms: C_19  and  O_59
REMARK    3  A    between atoms: C_27  and  C_44
REMARK    4  A    between atoms: C_44  and  C_46
REMARK    5  A    between atoms: C_46  and  C_47
REMARK    6  A    between atoms: C_51  and  O_53
REMARK                            x       y       z     vdW  Elec       q    Type
REMARK                         _______ _______ _______ _____ _____    ______ ____
ROOT
ATOM      1  C   UNL     1      49.790  76.824  45.707  0.00  0.00    +0.006 C 
ATOM      2  C   UNL     1      48.886  77.311  44.551  0.00  0.00    +0.062 C 
ATOM      3  C   UNL     1      47.517  76.883  44.909  0.00  0.00    +0.008 C 
ATOM      4  C   UNL     1      46.707  76.347  43.765  0.00  0.00    +0.030 C 
ATOM      5  C   UNL     1      47.686  75.463  42.979  0.00  0.00    +0.121 C 
ATOM      6  C   UNL     1      46.938  74.523  42.104  0.00  0.00    +0.063 C 
ATOM      7  C   UNL     1      46.739  73.235  42.795  0.00  0.00    +0.136 C 
ATOM      8  C   UNL     1      47.463  72.071  42.187  0.00  0.00    -0.017 C 
ATOM      9  C   UNL     1      47.025  70.832  42.095  0.00  0.00    -0.006 C 
ATOM     10  C   UNL     1      45.797  70.208  42.505  0.00  0.00    -0.001 C 
ATOM     11  C   UNL     1      44.715  69.838  41.851  0.00  0.00    -0.000 C 
ATOM     12  C   UNL     1      44.305  69.887  40.478  0.00  0.00    -0.005 C 
ATOM     13  C   UNL     1      44.019  70.828  39.639  0.00  0.00    -0.026 C 
ATOM     14  C   UNL     1      43.981  72.280  39.714  0.00  0.00    +0.022 C 
ATOM     15  C   UNL     1      43.428  72.895  40.953  0.00  0.00    +0.012 C 
ATOM     16  C   UNL     1      42.039  73.532  40.734  0.00  0.00    +0.061 C 
ATOM     17  C   UNL     1      42.174  74.982  40.885  0.00  0.00    +0.180 C 
ATOM     18  O   UNL     1      42.693  75.449  41.869  0.00  0.00    -0.293 OA
ATOM     19  C   UNL     1      41.648  75.876  39.781  0.00  0.00    +0.206 C 
ATOM     20  C   UNL     1      42.863  76.391  39.072  0.00  0.00    +0.204 C 
ATOM     21  C   UNL     1      42.529  77.488  38.148  0.00  0.00    -0.015 C 
ATOM     22  C   UNL     1      42.944  78.726  38.203  0.00  0.00    -0.025 C 
ATOM     23  C   UNL     1      43.874  79.276  39.257  0.00  0.00    +0.079 C 
ATOM     24  C   UNL     1      44.572  80.471  38.722  0.00  0.00    +0.158 C 
ATOM     25  O   UNL     1      43.929  81.235  38.042  0.00  0.00    -0.296 OA
ATOM     26  C   UNL     1      45.979  80.704  39.009  0.00  0.00    +0.108 C 
ATOM     27  C   UNL     1      46.283  81.460  40.281  0.00  0.00    +0.176 C 
ATOM     28  O   UNL     1      46.528  80.587  41.311  0.00  0.00    -0.451 OA
ATOM     29  C   UNL     1      47.600  80.410  42.134  0.00  0.00    +0.335 C 
ATOM     30  O   UNL     1      47.278  80.197  43.362  0.00  0.00    -0.248 OA
ATOM     31  C   UNL     1      49.029  80.441  41.748  0.00  0.00    +0.175 C 
ATOM     32  C   UNL     1      49.459  81.864  41.337  0.00  0.00    +0.031 C 
ATOM     33  C   UNL     1      50.840  82.197  41.919  0.00  0.00    +0.004 C 
ATOM     34  C   UNL     1      50.848  82.239  43.417  0.00  0.00    +0.022 C 
ATOM     35  C   UNL     1      49.913  81.146  43.919  0.00  0.00    +0.094 C 
ATOM     36  N   UNL     1      49.914  80.133  42.851  0.00  0.00    -0.265 N 
ATOM     37  C   UNL     1      50.783  79.022  42.965  0.00  0.00    +0.289 C 
ATOM     38  O   UNL     1      52.002  79.293  43.359  0.00  0.00    -0.267 OA
ATOM     39  C   UNL     1      50.482  77.632  42.698  0.00  0.00    +0.279 C 
ATOM     40  O   UNL     1      51.221  77.057  41.819  0.00  0.00    -0.281 OA
ATOM     41  C   UNL     1      49.450  76.780  43.291  0.00  0.00    +0.279 C 
ATOM     42  O   UNL     1      48.513  76.370  42.330  0.00  0.00    -0.329 OA
ATOM     43  O   UNL     1      50.119  75.570  43.634  0.00  0.00    -0.187 OA
ATOM     44  C   UNL     1      42.993  79.605  40.444  0.00  0.00    +0.012 C 
ATOM     45  C   UNL     1      41.617  77.143  36.992  0.00  0.00    +0.029 C 
ATOM     46  O   UNL     1      43.448  75.334  38.348  0.00  0.00    -0.216 OA
ATOM     47  C   UNL     1      41.075  73.057  41.809  0.00  0.00    +0.008 C 
ATOM     48  C   UNL     1      45.324  72.907  39.323  0.00  0.00    +0.005 C 
ATOM     49  C   UNL     1      48.823  72.389  41.616  0.00  0.00    +0.029 C 
ENDROOT
BRANCH  27  50
ATOM     50  C   UNL     1      45.249  82.539  40.574  0.00  0.00    +0.041 C 
ATOM     51  C   UNL     1      45.323  83.535  39.418  0.00  0.00    +0.004 C 
BRANCH  50  52
ATOM     52  C   UNL     1      45.664  83.258  41.821  0.00  0.00    +0.004 C 
BRANCH  52  53
ATOM     53  C   UNL     1      47.114  83.446  42.042  0.00  0.00    +0.003 C 
ATOM     54  C   UNL     1      47.508  84.899  42.248  0.00  0.00    +0.003 C 
ATOM     55  C   UNL     1      48.760  84.900  43.097  0.00  0.00    +0.035 C 
ATOM     56  C   UNL     1      49.485  83.575  43.086  0.00  0.00    +0.179 C 
ATOM     57  C   UNL     1      49.487  83.007  41.701  0.00  0.00    +0.146 C 
ATOM     58  C   UNL     1      48.076  82.805  41.126  0.00  0.00    +0.032 C 
ATOM     59  O   UNL     1      50.836  83.884  43.374  0.00  0.00    -0.221 OA
BRANCH  57  60
ATOM     60  O   UNL     1      50.224  81.831  41.589  0.00  0.00    -0.351 OA
ATOM     61  C   UNL     1      51.076  81.826  40.493  0.00  0.00    +0.174 C 
ENDBRANCH  57  60
ENDBRANCH  52  53
ENDBRANCH  50  52
ENDBRANCH  27  50
BRANCH  19  62
ATOM     62  O   UNL     1      40.744  75.206  38.996  0.00  0.00    -0.343 OA
ATOM     63  C   UNL     1      40.553  75.845  37.778  0.00  0.00    +0.175 C 
ENDBRANCH  19  62
BRANCH   7  64
ATOM     64  O   UNL     1      47.133  73.382  44.138  0.00  0.00    -0.349 OA
ATOM     65  C   UNL     1      48.468  73.171  44.355  0.00  0.00    +0.174 C 
ENDBRANCH   7  64
TORSDOF 6
