REMARK  Name = Sitagliptin
REMARK  5 active torsions:
REMARK  status: ('A' for Active; 'I' for Inactive)
REMARK    1  A    between atoms: C_7  and  C_8
REMARK    2  A    between atoms: C_14  and  C_16
REMARK    3  A    between atoms: C_16  and  C_17
REMARK    4  A    between atoms: C_17  and  C_18
REMARK    5  A    between atoms: C_18  and  C_19
REMARK                            x       y       z     vdW  Elec       q    Type
REMARK                         _______ _______ _______ _____ _____    ______ ____
ROOT
ATOM      1  C   UNL     1      45.566  78.938  40.833  0.00  0.00    +0.118 C 
ATOM      2  C   UNL     1      46.824  79.669  40.507  0.00  0.00    +0.130 C 
ATOM      3  N   UNL     1      46.495  80.941  39.916  0.00  0.00    -0.292 N 
ATOM      4  C   UNL     1      45.574  80.944  38.924  0.00  0.00    +0.164 A 
ATOM      5  N   UNL     1      45.442  82.215  38.548  0.00  0.00    -0.132 NA
ATOM      6  N   UNL     1      46.257  82.969  39.287  0.00  0.00    -0.125 NA
ATOM      7  C   UNL     1      46.924  82.187  40.150  0.00  0.00    +0.238 A 
ATOM      8  C   UNL     1      44.971  79.638  38.516  0.00  0.00    +0.160 C 
ATOM      9  N   UNL     1      44.594  78.972  39.748  0.00  0.00    -0.270 N 
ATOM     10  C   UNL     1      43.326  78.362  39.918  0.00  0.00    +0.227 C 
ATOM     11  O   UNL     1      42.306  79.043  39.678  0.00  0.00    -0.275 OA
ENDROOT
BRANCH   7  12
ATOM     12  C   UNL     1      47.920  82.683  41.129  0.00  0.00    +0.452 C 
ATOM     13  F   UNL     1      48.858  81.736  41.403  0.00  0.00    -0.163 F 
ATOM     14  F   UNL     1      48.580  83.791  40.589  0.00  0.00    -0.163 F 
ATOM     15  F   UNL     1      47.309  83.133  42.280  0.00  0.00    -0.163 F 
ENDBRANCH   7  12
BRANCH  10  16
ATOM     16  C   UNL     1      43.202  76.981  40.360  0.00  0.00    +0.105 C 
BRANCH  16  17
ATOM     17  C   UNL     1      42.282  76.102  39.597  0.00  0.00    +0.105 C 
ATOM     18  N   UNL     1      42.461  74.694  39.879  0.00  0.00    -0.132 NA
BRANCH  17  19
ATOM     19  C   UNL     1      40.837  76.490  39.681  0.00  0.00    +0.048 C 
BRANCH  19  20
ATOM     20  C   UNL     1      40.094  76.016  38.483  0.00  0.00    +0.009 A 
ATOM     21  C   UNL     1      39.338  74.860  38.506  0.00  0.00    +0.030 A 
ATOM     22  C   UNL     1      38.656  74.427  37.413  0.00  0.00    +0.167 A 
ATOM     23  C   UNL     1      38.677  75.114  36.220  0.00  0.00    +0.170 A 
ATOM     24  C   UNL     1      39.434  76.273  36.195  0.00  0.00    +0.061 A 
ATOM     25  C   UNL     1      40.133  76.725  37.298  0.00  0.00    +0.139 A 
ATOM     26  F   UNL     1      40.877  77.878  37.245  0.00  0.00    -0.204 F 
ATOM     27  F   UNL     1      37.995  74.677  35.136  0.00  0.00    -0.202 F 
ATOM     28  F   UNL     1      37.925  73.288  37.473  0.00  0.00    -0.202 F 
ENDBRANCH  19  20
ENDBRANCH  17  19
ENDBRANCH  16  17
ENDBRANCH  10  16
TORSDOF 5
