REMARK  Name = Sitosterol
REMARK  6 active torsions:
REMARK  status: ('A' for Active; 'I' for Inactive)
REMARK    1  A    between atoms: C_2  and  C_3
REMARK    2  A    between atoms: C_3  and  C_4
REMARK    3  A    between atoms: C_3  and  C_28
REMARK    4  A    between atoms: C_4  and  C_5
REMARK    5  A    between atoms: C_5  and  C_6
REMARK    6  A    between atoms: C_6  and  C_8
REMARK                            x       y       z     vdW  Elec       q    Type
REMARK                         _______ _______ _______ _____ _____    ______ ____
ROOT
ATOM      1  C   UNL     1      46.177  80.933  40.998  0.00  0.00    +0.000 C 
ATOM      2  C   UNL     1      45.490  80.067  42.025  0.00  0.00    +0.000 C 
ATOM      3  C   UNL     1      45.057  78.789  41.350  0.00  0.00    +0.000 C 
ATOM      4  C   UNL     1      45.552  78.931  39.951  0.00  0.00    +0.000 C 
ATOM      5  C   UNL     1      45.495  80.426  39.751  0.00  0.00    +0.000 C 
ATOM      6  C   UNL     1      44.055  80.884  39.734  0.00  0.00    +0.000 C 
ATOM      7  C   UNL     1      43.074  79.939  39.168  0.00  0.00    +0.000 C 
ATOM      8  C   UNL     1      43.587  78.788  38.389  0.00  0.00    +0.004 C 
ATOM      9  C   UNL     1      44.801  78.133  38.941  0.00  0.00    +0.005 C 
ATOM     10  C   UNL     1      44.567  76.752  39.516  0.00  0.00    +0.025 C 
ATOM     11  C   UNL     1      43.237  76.561  40.094  0.00  0.00    -0.035 C 
ATOM     12  C   UNL     1      42.170  77.060  39.485  0.00  0.00    -0.047 C 
ATOM     13  C   UNL     1      42.426  77.795  38.224  0.00  0.00    +0.015 C 
ATOM     14  C   UNL     1      41.163  78.532  37.866  0.00  0.00    +0.006 C 
ATOM     15  C   UNL     1      40.081  77.452  37.755  0.00  0.00    +0.034 C 
ATOM     16  C   UNL     1      39.719  76.876  39.086  0.00  0.00    +0.156 C 
ATOM     17  C   UNL     1      40.841  76.860  40.077  0.00  0.00    +0.055 C 
ATOM     18  O   UNL     1      38.651  77.608  39.603  0.00  0.00    -0.223 OA
ATOM     19  C   UNL     1      42.776  76.881  37.081  0.00  0.00    +0.004 C 
ATOM     20  C   UNL     1      46.120  80.875  38.483  0.00  0.00    +0.000 C 
ENDROOT
BRANCH   1  21
ATOM     21  C   UNL     1      47.661  80.782  41.018  0.00  0.00    +0.000 C 
ATOM     22  C   UNL     1      48.365  81.500  39.867  0.00  0.00    +0.000 C 
BRANCH  21  23
ATOM     23  C   UNL     1      48.278  81.460  42.263  0.00  0.00    +0.000 C 
BRANCH  23  24
ATOM     24  C   UNL     1      48.636  82.860  42.000  0.00  0.00    +0.000 C 
BRANCH  24  25
ATOM     25  C   UNL     1      49.553  83.555  42.944  0.00  0.00    +0.000 C 
BRANCH  25  26
ATOM     26  C   UNL     1      50.971  83.722  42.526  0.00  0.00    +0.000 C 
ATOM     27  C   UNL     1      51.840  84.457  43.537  0.00  0.00    +0.000 C 
ATOM     28  C   UNL     1      51.642  82.417  42.110  0.00  0.00    +0.000 C 
ENDBRANCH  25  26
BRANCH  25  30
ATOM     29  C   UNL     1      47.612  85.015  43.618  0.00  0.00    +0.000 C 
ATOM     30  C   UNL     1      48.991  84.993  43.048  0.00  0.00    +0.000 C 
ENDBRANCH  25  30
ENDBRANCH  24  25
ENDBRANCH  23  24
ENDBRANCH  21  23
ENDBRANCH   1  21
TORSDOF 6
