REMARK  Name = SKI-758
REMARK  8 active torsions:
REMARK  status: ('A' for Active; 'I' for Inactive)
REMARK    1  A    between atoms: N_5  and  C_8
REMARK    2  A    between atoms: C_8  and  C_9
REMARK    3  A    between atoms: C_11  and  C_14
REMARK    4  A    between atoms: C_15  and  O_37
REMARK    5  A    between atoms: C_22  and  C_35
REMARK    6  A    between atoms: C_23  and  N_24
REMARK    7  A    between atoms: N_24  and  C_25
REMARK    8  A    between atoms: C_27  and  O_33
REMARK                            x       y       z     vdW  Elec       q    Type
REMARK                         _______ _______ _______ _____ _____    ______ ____
ROOT
ATOM      1  C   UNL     1      43.701  78.867  39.744  0.00  0.00    +0.039 A 
ATOM      2  C   UNL     1      44.402  78.543  40.957  0.00  0.00    +0.139 A 
ATOM      3  C   UNL     1      45.486  79.381  41.286  0.00  0.00    +0.040 A 
ATOM      4  C   UNL     1      45.858  80.446  40.508  0.00  0.00    +0.037 A 
ATOM      5  C   UNL     1      45.156  80.754  39.328  0.00  0.00    +0.083 A 
ATOM      6  C   UNL     1      44.089  79.916  39.014  0.00  0.00    +0.022 A 
ATOM      7  N   UNL     1      45.609  81.704  38.535  0.00  0.00    -0.243 NA
ATOM      8  C   UNL     1      46.709  82.430  38.737  0.00  0.00    +0.110 A 
ATOM      9  C   UNL     1      47.473  82.176  39.889  0.00  0.00    +0.103 A 
ATOM     10  C   UNL     1      46.982  81.174  40.750  0.00  0.00    +0.083 A 
ENDROOT
BRANCH   1  13
ATOM     11  C   UNL     1      41.229  76.848  37.969  0.00  0.00    +0.139 A 
ATOM     12  C   UNL     1      41.947  78.074  38.176  0.00  0.00    +0.038 A 
ATOM     13  C   UNL     1      42.782  77.792  39.306  0.00  0.00    +0.043 A 
ATOM     14  C   UNL     1      42.557  76.536  39.681  0.00  0.00    +0.179 A 
ATOM     15  O   UNL     1      41.665  76.102  38.857  0.00  0.00    -0.453 OA
BRANCH  11  16
ATOM     16  C   UNL     1      40.240  76.821  36.851  0.00  0.00    +0.138 C 
BRANCH  16  21
ATOM     17  C   UNL     1      38.505  75.055  32.923  0.00  0.00    +0.090 C 
ATOM     18  N   UNL     1      38.590  74.659  34.319  0.00  0.00    -0.269 NA
ATOM     19  C   UNL     1      37.556  75.206  35.126  0.00  0.00    +0.090 C 
ATOM     20  C   UNL     1      37.963  76.106  36.242  0.00  0.00    +0.090 C 
ATOM     21  N   UNL     1      39.199  75.841  36.885  0.00  0.00    -0.264 NA
ATOM     22  C   UNL     1      39.819  74.604  36.353  0.00  0.00    +0.090 C 
ATOM     23  C   UNL     1      39.909  74.706  34.863  0.00  0.00    +0.090 C 
ENDBRANCH  16  21
ENDBRANCH  11  16
ENDBRANCH   1  13
BRANCH   9  24
ATOM     24  C   UNL     1      48.821  82.638  40.050  0.00  0.00    +0.103 C 
ATOM     25  N   UNL     1      49.959  83.034  40.165  0.00  0.00    -0.191 NA
ENDBRANCH   9  24
BRANCH   2  26
ATOM     26  O   UNL     1      43.988  77.549  41.636  0.00  0.00    -0.471 OA
ATOM     27  C   UNL     1      43.566  76.550  42.322  0.00  0.00    +0.252 C 
ENDBRANCH   2  26
BRANCH  10  28
ATOM     28  N   UNL     1      47.673  81.085  41.996  0.00  0.00    -0.211 NA
BRANCH  28  29
ATOM     29  C   UNL     1      48.525  82.154  42.430  0.00  0.00    +0.084 A 
ATOM     30  C   UNL     1      49.900  81.996  42.260  0.00  0.00    +0.055 A 
ATOM     31  C   UNL     1      50.887  82.854  42.664  0.00  0.00    +0.151 A 
ATOM     32  C   UNL     1      50.358  84.047  43.320  0.00  0.00    +0.092 A 
ATOM     33  C   UNL     1      49.036  84.209  43.470  0.00  0.00    +0.027 A 
ATOM     34  C   UNL     1      48.073  83.279  43.038  0.00  0.00    +0.074 A 
ATOM     35 CL   UNL     1      46.410  83.729  43.296  0.00  0.00    -0.081 Cl
ATOM     36 CL   UNL     1      51.605  85.159  43.886  0.00  0.00    -0.079 Cl
BRANCH  31  37
ATOM     37  O   UNL     1      52.134  82.767  42.538  0.00  0.00    -0.471 OA
ATOM     38  C   UNL     1      53.450  82.700  42.506  0.00  0.00    +0.253 C 
ENDBRANCH  31  37
ENDBRANCH  28  29
ENDBRANCH  10  28
TORSDOF 8
