REMARK  Name = SM-101
REMARK  2 active torsions:
REMARK  status: ('A' for Active; 'I' for Inactive)
REMARK    1  A    between atoms: C_5  and  C_9
REMARK    2  A    between atoms: C_10  and  C_12
REMARK                            x       y       z     vdW  Elec       q    Type
REMARK                         _______ _______ _______ _____ _____    ______ ____
ROOT
ATOM      1  C   UNL     1      43.733  80.148  38.987  0.00  0.00    +0.038 C 
ATOM      2  C   UNL     1      45.111  80.298  39.588  0.00  0.00    +0.059 C 
ATOM      3  C   UNL     1      45.615  79.341  40.332  0.00  0.00    +0.221 C 
ATOM      4  S   UNL     1      47.242  79.847  40.872  0.00  0.00    -0.063 S 
ATOM      5  C   UNL     1      47.079  81.584  40.310  0.00  0.00    +0.119 C 
ATOM      6  C   UNL     1      45.926  81.446  39.391  0.00  0.00    +0.185 C 
ATOM      7  O   UNL     1      45.735  82.345  38.498  0.00  0.00    -0.290 OA
ATOM      8  C   UNL     1      48.275  82.024  39.515  0.00  0.00    +0.024 C 
ATOM      9  O   UNL     1      45.059  78.128  40.687  0.00  0.00    -0.280 OA
ENDROOT
BRANCH   5  10
ATOM     10  C   UNL     1      46.750  82.497  41.427  0.00  0.00    -0.013 C 
ATOM     11  C   UNL     1      47.616  83.014  42.257  0.00  0.00    -0.025 C 
ATOM     12  C   UNL     1      48.604  82.155  42.928  0.00  0.00    +0.031 C 
BRANCH  11  13
ATOM     13  C   UNL     1      47.611  84.439  42.525  0.00  0.00    -0.005 C 
ATOM     14  C   UNL     1      48.432  84.962  43.404  0.00  0.00    -0.000 C 
ENDBRANCH  11  13
ENDBRANCH   5  10
TORSDOF 2
