REMARK  Name = Sofalcone
REMARK  12 active torsions:
REMARK  status: ('A' for Active; 'I' for Inactive)
REMARK    1  A    between atoms: C_3  and  C_4
REMARK    2  A    between atoms: C_4  and  O_5
REMARK    3  A    between atoms: O_5  and  C_6
REMARK    4  A    between atoms: C_9  and  C_12
REMARK    5  A    between atoms: C_13  and  C_14
REMARK    6  A    between atoms: C_14  and  C_16
REMARK    7  A    between atoms: C_17  and  O_28
REMARK    8  A    between atoms: C_19  and  O_22
REMARK    9  A    between atoms: O_22  and  C_23
REMARK   10  A    between atoms: C_23  and  C_24
REMARK   11  A    between atoms: O_28  and  C_29
REMARK   12  A    between atoms: C_29  and  C_30
REMARK                            x       y       z     vdW  Elec       q    Type
REMARK                         _______ _______ _______ _____ _____    ______ ____
ROOT
ATOM      1  C   UNL     1      46.097  81.240  40.039  0.00  0.00    +0.073 A 
ATOM      2  C   UNL     1      46.471  80.653  41.275  0.00  0.00    +0.145 A 
ATOM      3  C   UNL     1      47.504  81.114  42.021  0.00  0.00    +0.074 A 
ATOM      4  C   UNL     1      48.288  82.204  41.640  0.00  0.00    +0.142 A 
ATOM      5  C   UNL     1      47.937  82.803  40.428  0.00  0.00    +0.037 A 
ATOM      6  C   UNL     1      46.903  82.342  39.678  0.00  0.00    +0.009 A 
ENDROOT
BRANCH   1   7
ATOM      7  C   UNL     1      45.098  80.744  39.310  0.00  0.00    +0.199 C 
ATOM      8  O   UNL     1      44.891  81.831  38.255  0.00  0.00    -0.286 OA
BRANCH   7  10
ATOM      9  C   UNL     1      43.474  78.924  39.530  0.00  0.00    +0.003 C 
ATOM     10  C   UNL     1      44.071  79.884  38.852  0.00  0.00    +0.042 C 
BRANCH   9  14
ATOM     11  C   UNL     1      40.387  76.341  37.932  0.00  0.00    +0.139 A 
ATOM     12  C   UNL     1      41.102  76.034  39.067  0.00  0.00    +0.037 A 
ATOM     13  C   UNL     1      42.085  76.895  39.571  0.00  0.00    +0.003 A 
ATOM     14  C   UNL     1      42.397  78.100  38.962  0.00  0.00    +0.000 A 
ATOM     15  C   UNL     1      41.687  78.404  37.837  0.00  0.00    +0.003 A 
ATOM     16  C   UNL     1      40.703  77.561  37.319  0.00  0.00    +0.037 A 
BRANCH  11  17
ATOM     17  O   UNL     1      39.413  75.553  37.371  0.00  0.00    -0.471 OA
BRANCH  17  18
ATOM     18  C   UNL     1      38.740  75.846  36.221  0.00  0.00    +0.231 C 
BRANCH  18  21
ATOM     19  C   UNL     1      38.817  72.996  34.495  0.00  0.00    +0.026 C 
ATOM     20  C   UNL     1      37.790  73.649  35.336  0.00  0.00    -0.044 C 
ATOM     21  C   UNL     1      37.758  74.887  35.749  0.00  0.00    +0.012 C 
ATOM     22  C   UNL     1      36.633  72.718  35.726  0.00  0.00    +0.026 C 
ENDBRANCH  18  21
ENDBRANCH  17  18
ENDBRANCH  11  17
ENDBRANCH   9  14
ENDBRANCH   7  10
ENDBRANCH   1   7
BRANCH   4  23
ATOM     23  O   UNL     1      49.277  82.632  42.353  0.00  0.00    -0.471 OA
BRANCH  23  24
ATOM     24  C   UNL     1      50.245  83.027  43.092  0.00  0.00    +0.231 C 
BRANCH  24  25
ATOM     25  C   UNL     1      51.604  82.475  42.748  0.00  0.00    +0.012 C 
ATOM     26  C   UNL     1      52.538  83.231  42.254  0.00  0.00    -0.044 C 
ATOM     27  C   UNL     1      52.439  83.780  40.876  0.00  0.00    +0.026 C 
ATOM     28  C   UNL     1      53.755  83.530  43.082  0.00  0.00    +0.026 C 
ENDBRANCH  24  25
ENDBRANCH  23  24
ENDBRANCH   4  23
BRANCH   2  29
ATOM     29  O   UNL     1      45.714  79.559  41.698  0.00  0.00    -0.464 OA
BRANCH  29  30
ATOM     30  C   UNL     1      46.218  78.468  42.381  0.00  0.00    +0.319 C 
BRANCH  30  31
ATOM     31  C   UNL     1      45.130  77.546  42.803  0.00  0.00    +0.408 C 
ATOM     32  O   UNL     1      45.144  77.044  43.969  0.00  0.00    -0.241 OA
ATOM     33  O   UNL     1      44.109  77.222  41.959  0.00  0.00    -0.241 OA
ENDBRANCH  30  31
ENDBRANCH  29  30
ENDBRANCH   2  29
TORSDOF 12
