REMARK  Name = Solamargine
REMARK  7 active torsions:
REMARK  status: ('A' for Active; 'I' for Inactive)
REMARK    1  A    between atoms: C_23  and  O_25
REMARK    2  A    between atoms: O_25  and  C_26
REMARK    3  A    between atoms: C_27  and  O_46
REMARK    4  A    between atoms: C_29  and  O_34
REMARK    5  A    between atoms: C_30  and  C_32
REMARK    6  A    between atoms: O_34  and  C_35
REMARK    7  A    between atoms: O_46  and  C_47
REMARK                            x       y       z     vdW  Elec       q    Type
REMARK                         _______ _______ _______ _____ _____    ______ ____
ROOT
ATOM      1  C   UNL     1      50.424  79.569  41.476  0.00  0.00    +0.266 C 
ATOM      2  C   UNL     1      50.293  80.810  42.297  0.00  0.00    +0.207 C 
ATOM      3  C   UNL     1      50.979  80.571  43.633  0.00  0.00    +0.213 C 
ATOM      4  C   UNL     1      51.096  79.085  43.861  0.00  0.00    +0.180 C 
ATOM      5  C   UNL     1      49.899  78.334  43.391  0.00  0.00    +0.180 C 
ATOM      6  O   UNL     1      49.668  78.509  42.061  0.00  0.00    -0.326 OA
ATOM      7  O   UNL     1      50.228  81.218  44.604  0.00  0.00    -0.218 OA
ENDROOT
BRANCH   5   8
ATOM      8  C   UNL     1      50.021  76.844  43.756  0.00  0.00    +0.214 C 
ATOM      9  O   UNL     1      50.935  76.242  42.859  0.00  0.00    -0.218 OA
ENDBRANCH   5   8
BRANCH   1  10
ATOM     10  O   UNL     1      49.891  79.665  40.193  0.00  0.00    -0.331 OA
BRANCH  10  33
ATOM     11  C   UNL     1      35.232  74.838  37.004  0.00  0.00    +0.001 C 
ATOM     12  C   UNL     1      36.721  75.013  36.813  0.00  0.00    +0.018 C 
ATOM     13  C   UNL     1      37.525  74.168  37.745  0.00  0.00    +0.005 C 
ATOM     14  C   UNL     1      38.426  74.934  38.656  0.00  0.00    +0.044 C 
ATOM     15  C   UNL     1      39.185  76.050  38.002  0.00  0.00    +0.152 C 
ATOM     16  C   UNL     1      40.661  75.728  37.813  0.00  0.00    +0.043 C 
ATOM     17  C   UNL     1      41.147  75.970  39.211  0.00  0.00    +0.031 C 
ATOM     18  C   UNL     1      40.361  77.257  39.503  0.00  0.00    +0.117 C 
ATOM     19  O   UNL     1      39.168  77.140  38.839  0.00  0.00    -0.346 OA
ATOM     20  C   UNL     1      41.194  78.284  38.778  0.00  0.00    +0.030 C 
ATOM     21  C   UNL     1      42.566  77.720  38.575  0.00  0.00    +0.003 C 
ATOM     22  C   UNL     1      42.560  76.419  39.318  0.00  0.00    +0.002 C 
ATOM     23  C   UNL     1      42.884  76.584  40.785  0.00  0.00    +0.000 C 
ATOM     24  C   UNL     1      44.203  77.250  41.032  0.00  0.00    +0.000 C 
ATOM     25  C   UNL     1      44.700  78.040  39.854  0.00  0.00    +0.004 C 
ATOM     26  C   UNL     1      43.627  78.680  39.056  0.00  0.00    +0.005 C 
ATOM     27  C   UNL     1      44.220  79.460  37.922  0.00  0.00    +0.025 C 
ATOM     28  C   UNL     1      45.677  79.603  37.940  0.00  0.00    -0.035 C 
ATOM     29  C   UNL     1      46.428  79.456  39.040  0.00  0.00    -0.047 C 
ATOM     30  C   UNL     1      45.675  79.132  40.273  0.00  0.00    +0.015 C 
ATOM     31  C   UNL     1      46.552  78.738  41.423  0.00  0.00    +0.006 C 
ATOM     32  C   UNL     1      47.973  78.393  40.969  0.00  0.00    +0.030 C 
ATOM     33  C   UNL     1      48.503  79.636  40.290  0.00  0.00    +0.122 C 
ATOM     34  C   UNL     1      47.876  79.623  38.898  0.00  0.00    +0.051 C 
ATOM     35  C   UNL     1      44.941  80.394  40.679  0.00  0.00    +0.004 C 
ATOM     36  C   UNL     1      43.474  75.372  38.770  0.00  0.00    +0.000 C 
ATOM     37  C   UNL     1      40.925  74.397  37.239  0.00  0.00    +0.004 C 
ATOM     38  N   UNL     1      38.585  76.477  36.743  0.00  0.00    -0.195 NA
ATOM     39  C   UNL     1      37.147  76.461  36.938  0.00  0.00    +0.091 C 
ENDBRANCH  10  33
ENDBRANCH   1  10
BRANCH   4  40
ATOM     40  O   UNL     1      51.441  78.787  45.179  0.00  0.00    -0.326 OA
BRANCH  40  41
ATOM     41  C   UNL     1      52.785  78.874  45.459  0.00  0.00    +0.269 C 
ATOM     42  C   UNL     1      52.889  78.881  46.991  0.00  0.00    +0.241 C 
ATOM     43  C   UNL     1      52.121  77.668  47.537  0.00  0.00    +0.220 C 
ATOM     44  C   UNL     1      52.330  76.495  46.595  0.00  0.00    +0.212 C 
ATOM     45  C   UNL     1      53.669  76.779  45.900  0.00  0.00    +0.151 C 
ATOM     46  O   UNL     1      53.419  77.752  44.941  0.00  0.00    -0.328 OA
ATOM     47  C   UNL     1      54.157  75.501  45.250  0.00  0.00    +0.035 C 
ATOM     48  O   UNL     1      52.337  75.279  47.231  0.00  0.00    -0.218 OA
ATOM     49  O   UNL     1      52.559  77.428  48.815  0.00  0.00    -0.217 OA
ATOM     50  O   UNL     1      52.239  80.009  47.487  0.00  0.00    -0.215 OA
ENDBRANCH  40  41
ENDBRANCH   4  40
BRANCH   2  51
ATOM     51  O   UNL     1      50.925  81.880  41.686  0.00  0.00    -0.323 OA
BRANCH  51  52
ATOM     52  C   UNL     1      50.727  83.066  42.367  0.00  0.00    +0.270 C 
ATOM     53  C   UNL     1      51.969  83.567  43.029  0.00  0.00    +0.241 C 
ATOM     54  C   UNL     1      51.596  84.588  44.112  0.00  0.00    +0.220 C 
ATOM     55  C   UNL     1      50.244  85.141  43.707  0.00  0.00    +0.212 C 
ATOM     56  C   UNL     1      49.241  84.019  43.799  0.00  0.00    +0.151 C 
ATOM     57  O   UNL     1      49.796  82.821  43.383  0.00  0.00    -0.328 OA
ATOM     58  C   UNL     1      48.054  84.397  42.939  0.00  0.00    +0.035 C 
ATOM     59  O   UNL     1      49.919  86.171  44.608  0.00  0.00    -0.218 OA
ATOM     60  O   UNL     1      52.495  85.647  44.141  0.00  0.00    -0.217 OA
ATOM     61  O   UNL     1      52.776  84.278  42.126  0.00  0.00    -0.215 OA
ENDBRANCH  51  52
ENDBRANCH   2  51
TORSDOF 7
