REMARK  Name = Somatrem
REMARK  29 active torsions:
REMARK  status: ('A' for Active; 'I' for Inactive)
REMARK    1  A    between atoms: C_2  and  C_4
REMARK    2  A    between atoms: C_4  and  C_5
REMARK    3  A    between atoms: N_7  and  C_8
REMARK    4  A    between atoms: C_8  and  C_10
REMARK    5  A    between atoms: N_12  and  C_13
REMARK    6  A    between atoms: C_13  and  C_14
REMARK    7  A    between atoms: C_13  and  C_17
REMARK    8  A    between atoms: N_19  and  C_20
REMARK    9  A    between atoms: C_20  and  C_21
REMARK   10  A    between atoms: N_23  and  C_24
REMARK   11  A    between atoms: C_24  and  C_25
REMARK   12  A    between atoms: C_24  and  C_30
REMARK   13  A    between atoms: C_25  and  C_26
REMARK   14  A    between atoms: C_26  and  C_27
REMARK   15  A    between atoms: N_32  and  C_33
REMARK   16  A    between atoms: C_33  and  C_34
REMARK   17  A    between atoms: C_33  and  C_39
REMARK   18  A    between atoms: C_34  and  C_35
REMARK   19  A    between atoms: C_35  and  C_36
REMARK   20  A    between atoms: C_45  and  C_46
REMARK   21  A    between atoms: N_48  and  C_49
REMARK   22  A    between atoms: C_49  and  C_50
REMARK   23  A    between atoms: C_56  and  C_57
REMARK   24  A    between atoms: N_59  and  C_60
REMARK   25  A    between atoms: C_60  and  C_61
REMARK   26  A    between atoms: C_60  and  C_68
REMARK   27  A    between atoms: C_61  and  C_62
REMARK   28  A    between atoms: C_62  and  C_63
REMARK   29  A    between atoms: C_63  and  N_64
REMARK                            x       y       z     vdW  Elec       q    Type
REMARK                         _______ _______ _______ _____ _____    ______ ____
ROOT
ATOM      1  C   UNL     1      38.612  76.217  37.370  0.00  0.00    +0.172 C 
ENDROOT
BRANCH   1   2
ATOM      2  C   UNL     1      39.981  76.550  37.765  0.00  0.00    +0.246 C 
ATOM      3  O   UNL     1      40.032  77.206  38.880  0.00  0.00    -0.273 OA
ATOM      4  N   UNL     1      41.149  76.249  37.116  0.00  0.00    -0.272 N 
ATOM      5  C   UNL     1      41.344  75.930  35.678  0.00  0.00    +0.094 C 
ATOM      6  C   UNL     1      41.988  74.547  35.790  0.00  0.00    +0.024 C 
ATOM      7  C   UNL     1      42.682  74.569  37.160  0.00  0.00    +0.031 C 
ATOM      8  C   UNL     1      42.511  76.062  37.568  0.00  0.00    +0.154 C 
BRANCH   8   9
ATOM      9  C   UNL     1      42.890  76.280  38.922  0.00  0.00    +0.260 C 
ATOM     10  O   UNL     1      42.430  75.773  39.938  0.00  0.00    -0.272 OA
ATOM     11  N   UNL     1      43.978  77.234  39.159  0.00  0.00    -0.194 NA
BRANCH  11  12
ATOM     12  C   UNL     1      44.738  77.173  40.363  0.00  0.00    +0.200 C 
BRANCH  12  13
ATOM     13  C   UNL     1      44.967  78.419  41.115  0.00  0.00    +0.248 C 
ATOM     14  O   UNL     1      45.182  79.428  40.318  0.00  0.00    -0.273 OA
ATOM     15  N   UNL     1      44.968  78.587  42.496  0.00  0.00    -0.272 N 
ATOM     16  C   UNL     1      43.814  78.613  43.444  0.00  0.00    +0.094 C 
ATOM     17  C   UNL     1      44.223  77.562  44.440  0.00  0.00    +0.024 C 
ATOM     18  C   UNL     1      45.749  77.428  44.275  0.00  0.00    +0.031 C 
ATOM     19  C   UNL     1      46.032  78.715  43.446  0.00  0.00    +0.154 C 
BRANCH  19  20
ATOM     20  C   UNL     1      47.406  78.822  43.074  0.00  0.00    +0.260 C 
ATOM     21  O   UNL     1      47.897  78.503  41.990  0.00  0.00    -0.272 OA
ATOM     22  N   UNL     1      48.314  79.358  44.065  0.00  0.00    -0.196 NA
BRANCH  22  23
ATOM     23  C   UNL     1      49.557  79.923  43.636  0.00  0.00    +0.174 C 
BRANCH  23  24
ATOM     24  C   UNL     1      50.169  80.591  44.823  0.00  0.00    +0.281 C 
ATOM     25  O   UNL     1      49.503  81.391  45.517  0.00  0.00    -0.270 OA
ATOM     26  N   UNL     1      51.519  80.325  45.176  0.00  0.00    -0.086 NA
ENDBRANCH  23  24
BRANCH  23  27
ATOM     27  C   UNL     1      49.321  80.901  42.517  0.00  0.00    +0.033 C 
BRANCH  27  28
ATOM     28  C   UNL     1      50.665  81.338  41.973  0.00  0.00    +0.029 C 
BRANCH  28  29
ATOM     29  C   UNL     1      50.369  82.329  40.839  0.00  0.00    +0.129 C 
BRANCH  29  30
ATOM     30  N   UNL     1      51.584  83.077  40.576  0.00  0.00    -0.234 NA
ATOM     31  C   UNL     1      52.063  83.291  39.412  0.00  0.00    +0.284 C 
ATOM     32  N   UNL     1      51.263  83.066  38.260  0.00  0.00    -0.104 NA
ATOM     33  N   UNL     1      53.399  83.760  39.302  0.00  0.00    -0.104 NA
ENDBRANCH  29  30
ENDBRANCH  28  29
ENDBRANCH  27  28
ENDBRANCH  23  27
ENDBRANCH  22  23
ENDBRANCH  19  20
ENDBRANCH  12  13
ENDBRANCH  11  12
ENDBRANCH   8   9
ENDBRANCH   1   2
BRANCH   1  36
ATOM     34  C   UNL     1      36.838  76.349  35.619  0.00  0.00    +0.262 C 
ATOM     35  O   UNL     1      36.231  75.490  36.317  0.00  0.00    -0.271 OA
ATOM     36  N   UNL     1      38.106  76.759  36.152  0.00  0.00    -0.196 NA
BRANCH  34  37
ATOM     37  C   UNL     1      36.292  76.886  34.351  0.00  0.00    +0.173 C 
BRANCH  37  40
ATOM     38  C   UNL     1      36.128  75.434  32.294  0.00  0.00    +0.264 C 
ATOM     39  O   UNL     1      37.110  76.113  31.813  0.00  0.00    -0.271 OA
ATOM     40  N   UNL     1      35.687  75.796  33.583  0.00  0.00    -0.196 NA
BRANCH  38  41
ATOM     41  C   UNL     1      35.570  74.359  31.463  0.00  0.00    +0.201 C 
BRANCH  41  44
ATOM     42  C   UNL     1      35.699  73.587  29.067  0.00  0.00    +0.262 C 
ATOM     43  O   UNL     1      35.002  72.579  29.329  0.00  0.00    -0.271 OA
ATOM     44  N   UNL     1      36.060  74.471  30.114  0.00  0.00    -0.194 NA
BRANCH  42  45
ATOM     45  C   UNL     1      36.157  73.868  27.647  0.00  0.00    +0.173 C 
BRANCH  45  48
ATOM     46  C   UNL     1      36.676  71.487  26.942  0.00  0.00    +0.262 C 
ATOM     47  O   UNL     1      37.615  71.419  27.806  0.00  0.00    -0.271 OA
ATOM     48  N   UNL     1      35.949  72.697  26.837  0.00  0.00    -0.196 NA
BRANCH  46  49
ATOM     49  C   UNL     1      36.398  70.310  26.107  0.00  0.00    +0.173 C 
ATOM     50  C   UNL     1      37.016  70.475  24.710  0.00  0.00    +0.033 C 
BRANCH  49  53
ATOM     51  C   UNL     1      36.420  68.483  27.834  0.00  0.00    +0.259 C 
ATOM     52  O   UNL     1      35.479  69.141  28.389  0.00  0.00    -0.272 OA
ATOM     53  N   UNL     1      36.958  69.094  26.676  0.00  0.00    -0.197 NA
BRANCH  51  54
ATOM     54  C   UNL     1      36.820  67.221  28.434  0.00  0.00    +0.169 C 
ATOM     55  N   UNL     1      37.036  67.396  29.874  0.00  0.00    -0.123 NA
BRANCH  54  57
ATOM     56  C   UNL     1      35.912  65.422  26.908  0.00  0.00    +0.002 C 
ATOM     57  C   UNL     1      35.906  66.066  28.276  0.00  0.00    +0.027 C 
ATOM     58  C   UNL     1      34.481  66.374  28.721  0.00  0.00    +0.002 C 
ENDBRANCH  54  57
ENDBRANCH  51  54
ENDBRANCH  49  53
ENDBRANCH  46  49
ENDBRANCH  45  48
BRANCH  45  59
ATOM     59  C   UNL     1      35.501  75.111  27.169  0.00  0.00    +0.029 C 
ATOM     60  C   UNL     1      35.889  76.259  28.071  0.00  0.00    +0.002 C 
ATOM     61  C   UNL     1      35.761  75.414  25.718  0.00  0.00    +0.002 C 
ENDBRANCH  45  59
ENDBRANCH  42  45
ENDBRANCH  41  44
ENDBRANCH  38  41
ENDBRANCH  37  40
BRANCH  37  62
ATOM     62  C   UNL     1      35.450  78.078  34.516  0.00  0.00    +0.043 C 
BRANCH  62  63
ATOM     63  C   UNL     1      35.058  78.854  33.319  0.00  0.00    +0.116 C 
BRANCH  63  64
ATOM     64  C   UNL     1      34.313  80.093  33.591  0.00  0.00    +0.365 C 
ATOM     65  O   UNL     1      34.821  81.238  33.542  0.00  0.00    -0.246 OA
ATOM     66  O   UNL     1      32.953  80.004  33.927  0.00  0.00    -0.246 OA
ENDBRANCH  63  64
ENDBRANCH  62  63
ENDBRANCH  37  62
ENDBRANCH  34  37
ENDBRANCH   1  36
BRANCH   1  67
ATOM     67  C   UNL     1      37.614  76.413  38.468  0.00  0.00    +0.043 C 
BRANCH  67  68
ATOM     68  C   UNL     1      36.913  75.165  38.882  0.00  0.00    +0.116 C 
BRANCH  68  69
ATOM     69  C   UNL     1      36.059  75.489  40.082  0.00  0.00    +0.365 C 
ATOM     70  O   UNL     1      36.507  76.120  41.052  0.00  0.00    -0.246 OA
ATOM     71  O   UNL     1      34.749  75.040  40.029  0.00  0.00    -0.246 OA
ENDBRANCH  68  69
ENDBRANCH  67  68
ENDBRANCH   1  67
TORSDOF 29
