REMARK  Name = Sorbitol
REMARK  5 active torsions:
REMARK  status: ('A' for Active; 'I' for Inactive)
REMARK    1  A    between atoms: C_1  and  C_2
REMARK    2  A    between atoms: C_2  and  C_3
REMARK    3  A    between atoms: C_3  and  C_4
REMARK    4  A    between atoms: C_4  and  C_5
REMARK    5  A    between atoms: C_5  and  C_6
REMARK                            x       y       z     vdW  Elec       q    Type
REMARK                         _______ _______ _______ _____ _____    ______ ____
ROOT
ATOM      1  C   UNL     1      47.164  81.785  39.886  0.00  0.00    +0.217 C 
ATOM      2  O   UNL     1      46.312  82.906  39.718  0.00  0.00    -0.217 OA
ENDROOT
BRANCH   1   3
ATOM      3  C   UNL     1      47.859  82.003  41.209  0.00  0.00    +0.217 C 
ATOM      4  O   UNL     1      48.632  80.948  41.617  0.00  0.00    -0.217 OA
BRANCH   3   5
ATOM      5  C   UNL     1      48.736  83.247  41.050  0.00  0.00    +0.217 C 
ATOM      6  O   UNL     1      49.507  83.184  39.902  0.00  0.00    -0.217 OA
ENDBRANCH   3   5
ENDBRANCH   1   3
BRANCH   1   7
ATOM      7  C   UNL     1      46.287  80.583  39.858  0.00  0.00    +0.217 C 
ATOM      8  O   UNL     1      46.011  80.242  41.196  0.00  0.00    -0.217 OA
BRANCH   7   9
ATOM      9  C   UNL     1      44.978  80.765  39.169  0.00  0.00    +0.217 C 
ATOM     10  O   UNL     1      45.259  81.421  37.947  0.00  0.00    -0.217 OA
BRANCH   9  11
ATOM     11  C   UNL     1      44.291  79.477  38.818  0.00  0.00    +0.217 C 
ATOM     12  O   UNL     1      43.240  79.650  37.936  0.00  0.00    -0.217 OA
ENDBRANCH   9  11
ENDBRANCH   7   9
ENDBRANCH   1   7
TORSDOF 5
