REMARK  Name = Sorivudine
REMARK  3 active torsions:
REMARK  status: ('A' for Active; 'I' for Inactive)
REMARK    1  A    between atoms: C_2  and  C_18
REMARK    2  A    between atoms: N_8  and  C1*_9
REMARK    3  A    between atoms: C4*_12  and  C5*_14
REMARK                            x       y       z     vdW  Elec       q    Type
REMARK                         _______ _______ _______ _____ _____    ______ ____
ROOT
ATOM      1  C   UNL     1      45.724  80.067  40.902  0.00  0.00    +0.087 A 
ATOM      2  C   UNL     1      46.121  81.151  40.090  0.00  0.00    +0.076 A 
ATOM      3  C   UNL     1      45.451  81.285  38.906  0.00  0.00    +0.284 A 
ATOM      4  O   UNL     1      45.699  82.196  38.096  0.00  0.00    -0.265 OA
ATOM      5  N   UNL     1      44.462  80.409  38.556  0.00  0.00    -0.153 NA
ATOM      6  C   UNL     1      44.124  79.401  39.360  0.00  0.00    +0.355 A 
ATOM      7  O   UNL     1      43.194  78.601  38.998  0.00  0.00    -0.244 OA
ATOM      8  N   UNL     1      44.765  79.251  40.520  0.00  0.00    -0.253 N 
ENDROOT
BRANCH   8   9
ATOM      9  C1* UNL     1      44.378  78.144  41.378  0.00  0.00    +0.242 C 
ATOM     10  C2* UNL     1      44.016  76.916  40.581  0.00  0.00    +0.234 C 
ATOM     11  C3* UNL     1      44.975  75.915  41.119  0.00  0.00    +0.216 C 
ATOM     12  C4* UNL     1      45.304  76.433  42.470  0.00  0.00    +0.183 C 
ATOM     13  O4* UNL     1      45.380  77.803  42.263  0.00  0.00    -0.330 OA
ATOM     14  O3* UNL     1      44.545  74.612  41.081  0.00  0.00    -0.218 OA
ATOM     15  O2* UNL     1      44.153  77.125  39.209  0.00  0.00    -0.216 OA
BRANCH  12  16
ATOM     16  C5* UNL     1      44.276  76.154  43.516  0.00  0.00    +0.214 C 
ATOM     17  O5* UNL     1      44.712  76.162  44.807  0.00  0.00    -0.218 OA
ENDBRANCH  12  16
ENDBRANCH   8   9
BRANCH   2  18
ATOM     18  C   UNL     1      47.169  82.001  40.564  0.00  0.00    +0.013 C 
ATOM     19  C   UNL     1      48.194  81.787  41.287  0.00  0.00    +0.041 C 
ATOM     20 BR   UNL     1      49.536  82.922  41.891  0.00  0.00    -0.048 Br
ENDBRANCH   2  18
TORSDOF 3
