REMARK  Name = Sotalol
REMARK  6 active torsions:
REMARK  status: ('A' for Active; 'I' for Inactive)
REMARK    1  A    between atoms: C_2  and  N_4
REMARK    2  A    between atoms: N_4  and  C_5
REMARK    3  A    between atoms: C_5  and  C_6
REMARK    4  A    between atoms: C_6  and  C_7
REMARK    5  A    between atoms: C_10  and  N_13
REMARK    6  A    between atoms: N_13  and  S_14
REMARK                            x       y       z     vdW  Elec       q    Type
REMARK                         _______ _______ _______ _____ _____    ______ ____
ROOT
ATOM      1  C   UNL     1      46.101  81.588  40.104  0.00  0.00    +0.009 A 
ATOM      2  C   UNL     1      46.866  82.712  40.034  0.00  0.00    -0.000 A 
ATOM      3  C   UNL     1      47.899  82.901  40.947  0.00  0.00    +0.018 A 
ATOM      4  C   UNL     1      48.165  81.969  41.928  0.00  0.00    +0.091 A 
ATOM      5  C   UNL     1      47.385  80.814  42.006  0.00  0.00    +0.018 A 
ATOM      6  C   UNL     1      46.379  80.663  41.091  0.00  0.00    -0.000 A 
ENDROOT
BRANCH   1   7
ATOM      7  C   UNL     1      44.968  81.271  39.174  0.00  0.00    +0.192 C 
ATOM      8  O   UNL     1      45.221  81.859  37.927  0.00  0.00    -0.217 OA
BRANCH   7   9
ATOM      9  C   UNL     1      44.759  79.810  39.029  0.00  0.00    +0.126 C 
BRANCH   9  10
ATOM     10  N   UNL     1      43.454  79.453  38.676  0.00  0.00    -0.216 NA
BRANCH  10  12
ATOM     11  C   UNL     1      41.923  78.249  37.340  0.00  0.00    +0.019 C 
ATOM     12  C   UNL     1      43.101  78.139  38.349  0.00  0.00    +0.073 C 
ATOM     13  C   UNL     1      42.612  77.237  39.432  0.00  0.00    +0.019 C 
ENDBRANCH  10  12
ENDBRANCH   9  10
ENDBRANCH   7   9
ENDBRANCH   1   7
BRANCH   4  14
ATOM     14  N   UNL     1      49.207  82.159  42.847  0.00  0.00    -0.101 NA
BRANCH  14  15
ATOM     15  S   UNL     1      49.859  83.720  43.166  0.00  0.00    +0.075 S 
ATOM     16  O   UNL     1      50.898  83.604  44.273  0.00  0.00    -0.153 OA
ATOM     17  O   UNL     1      50.564  84.196  41.936  0.00  0.00    -0.153 OA
ATOM     18  C   UNL     1      48.606  84.849  43.714  0.00  0.00    +0.202 C 
ENDBRANCH  14  15
ENDBRANCH   4  14
TORSDOF 6
