REMARK  Name = Sotagliflozin
REMARK  6 active torsions:
REMARK  status: ('A' for Active; 'I' for Inactive)
REMARK    1  A    between atoms: C_2  and  O_3
REMARK    2  A    between atoms: O_3  and  C_4
REMARK    3  A    between atoms: C_7  and  C_10
REMARK    4  A    between atoms: C_10  and  C_11
REMARK    5  A    between atoms: C_15  and  C_17
REMARK    6  A    between atoms: C_21  and  S_23
REMARK                            x       y       z     vdW  Elec       q    Type
REMARK                         _______ _______ _______ _____ _____    ______ ____
ROOT
ATOM      1  C   UNL     1      44.220  76.954  40.705  0.00  0.00    -0.007 A 
ATOM      2  C   UNL     1      44.166  76.871  42.068  0.00  0.00    +0.054 A 
ATOM      3  C   UNL     1      44.859  77.837  42.795  0.00  0.00    +0.011 A 
ATOM      4  C   UNL     1      45.572  78.839  42.175  0.00  0.00    -0.001 A 
ATOM      5  C   UNL     1      45.640  78.943  40.800  0.00  0.00    +0.007 A 
ATOM      6  C   UNL     1      44.955  77.987  40.097  0.00  0.00    -0.005 A 
ATOM      7 CL   UNL     1      43.272  75.613  42.934  0.00  0.00    -0.083 Cl
ENDROOT
BRANCH   5   8
ATOM      8  C   UNL     1      46.404  80.015  40.117  0.00  0.00    +0.171 C 
ATOM      9  C   UNL     1      45.522  80.669  39.079  0.00  0.00    +0.216 C 
ATOM     10  C   UNL     1      45.618  82.172  39.142  0.00  0.00    +0.218 C 
ATOM     11  C   UNL     1      47.052  82.555  39.330  0.00  0.00    +0.222 C 
ATOM     12  C   UNL     1      47.647  81.907  40.523  0.00  0.00    +0.196 C 
ATOM     13  O   UNL     1      46.814  80.931  41.083  0.00  0.00    -0.338 OA
ATOM     14  O   UNL     1      47.724  82.073  38.181  0.00  0.00    -0.217 OA
ATOM     15  O   UNL     1      44.739  82.756  40.039  0.00  0.00    -0.217 OA
ATOM     16  O   UNL     1      45.913  80.287  37.780  0.00  0.00    -0.217 OA
BRANCH  12  17
ATOM     17  S   UNL     1      48.185  83.000  41.829  0.00  0.00    -0.108 S 
ATOM     18  C   UNL     1      48.867  82.208  43.270  0.00  0.00    +0.072 C 
ENDBRANCH  12  17
ENDBRANCH   5   8
BRANCH   1  19
ATOM     19  C   UNL     1      43.538  75.996  39.847  0.00  0.00    +0.053 C 
BRANCH  19  23
ATOM     20  C   UNL     1      39.975  77.227  37.836  0.00  0.00    +0.139 A 
ATOM     21  C   UNL     1      40.586  77.999  38.813  0.00  0.00    +0.037 A 
ATOM     22  C   UNL     1      41.730  77.606  39.477  0.00  0.00    -0.001 A 
ATOM     23  C   UNL     1      42.325  76.380  39.171  0.00  0.00    -0.018 A 
ATOM     24  C   UNL     1      41.705  75.605  38.186  0.00  0.00    -0.001 A 
ATOM     25  C   UNL     1      40.562  76.016  37.536  0.00  0.00    +0.037 A 
BRANCH  20  26
ATOM     26  O   UNL     1      38.843  77.705  37.237  0.00  0.00    -0.475 OA
BRANCH  26  28
ATOM     27  C   UNL     1      37.236  78.448  35.679  0.00  0.00    +0.051 C 
ATOM     28  C   UNL     1      38.613  77.859  35.864  0.00  0.00    +0.206 C 
ENDBRANCH  26  28
ENDBRANCH  20  26
ENDBRANCH  19  23
ENDBRANCH   1  19
TORSDOF 6
