REMARK  Name = Sotorasib
REMARK  4 active torsions:
REMARK  status: ('A' for Active; 'I' for Inactive)
REMARK    1  A    between atoms: N_12  and  C_28
REMARK    2  A    between atoms: C_15  and  C_20
REMARK    3  A    between atoms: C_33  and  C_34
REMARK    4  A    between atoms: C_38  and  C_40
REMARK                            x       y       z     vdW  Elec       q    Type
REMARK                         _______ _______ _______ _____ _____    ______ ____
ROOT
ATOM      1  C   UNL     1      44.714  77.479  41.004  0.00  0.00    +0.023 C 
ATOM      2  C   UNL     1      44.002  78.834  40.803  0.00  0.00    +0.094 C 
ATOM      3  C   UNL     1      42.675  78.516  40.192  0.00  0.00    +0.113 C 
ATOM      4  N   UNL     1      42.746  78.693  38.710  0.00  0.00    -0.273 N 
ATOM      5  C   UNL     1      43.220  79.991  38.345  0.00  0.00    +0.115 C 
ATOM      6  C   UNL     1      44.679  80.026  38.708  0.00  0.00    +0.114 C 
ATOM      7  N   UNL     1      44.863  79.722  40.085  0.00  0.00    -0.291 N 
ATOM      8  C   UNL     1      45.950  80.264  40.862  0.00  0.00    +0.139 A 
ATOM      9  N   UNL     1      45.986  80.059  42.201  0.00  0.00    -0.177 NA
ATOM     10  C   UNL     1      46.994  80.533  42.951  0.00  0.00    +0.356 A 
ATOM     11  O   UNL     1      46.975  80.306  44.226  0.00  0.00    -0.244 OA
ATOM     12  N   UNL     1      47.977  81.216  42.376  0.00  0.00    -0.242 N 
ATOM     13  C   UNL     1      47.974  81.438  41.058  0.00  0.00    +0.154 A 
ATOM     14  N   UNL     1      48.990  82.152  40.459  0.00  0.00    -0.225 NA
ATOM     15  C   UNL     1      48.993  82.384  39.144  0.00  0.00    +0.115 A 
ATOM     16  C   UNL     1      47.969  81.909  38.352  0.00  0.00    +0.158 A 
ATOM     17  C   UNL     1      46.932  81.192  38.896  0.00  0.00    +0.037 A 
ATOM     18  C   UNL     1      46.943  80.959  40.258  0.00  0.00    +0.069 A 
ATOM     19  F   UNL     1      47.950  82.131  37.020  0.00  0.00    -0.203 F 
ATOM     20  C   UNL     1      42.356  77.656  37.901  0.00  0.00    +0.249 C 
ATOM     21  O   UNL     1      42.677  77.768  36.620  0.00  0.00    -0.270 OA
ENDROOT
BRANCH  15  22
ATOM     22  C   UNL     1      50.108  83.155  38.564  0.00  0.00    +0.086 A 
ATOM     23  C   UNL     1      51.219  83.321  39.362  0.00  0.00    +0.199 A 
ATOM     24  C   UNL     1      52.297  84.035  38.874  0.00  0.00    +0.042 A 
ATOM     25  C   UNL     1      52.268  84.576  37.605  0.00  0.00    +0.006 A 
ATOM     26  C   UNL     1      51.142  84.385  36.846  0.00  0.00    +0.030 A 
ATOM     27  C   UNL     1      50.038  83.680  37.288  0.00  0.00    +0.145 A 
ATOM     28  F   UNL     1      48.927  83.501  36.519  0.00  0.00    -0.204 F 
ATOM     29  O   UNL     1      51.324  82.808  40.648  0.00  0.00    -0.286 OA
ENDBRANCH  15  22
BRANCH  12  30
ATOM     30  C   UNL     1      49.032  81.713  43.160  0.00  0.00    +0.079 A 
ATOM     31  C   UNL     1      50.002  80.819  43.570  0.00  0.00    -0.003 A 
ATOM     32  C   UNL     1      51.017  81.358  44.339  0.00  0.00    +0.018 A 
ATOM     33  C   UNL     1      51.036  82.695  44.658  0.00  0.00    +0.098 A 
ATOM     34  N   UNL     1      50.057  83.498  44.221  0.00  0.00    -0.247 NA
ATOM     35  C   UNL     1      49.030  83.060  43.469  0.00  0.00    +0.074 A 
ATOM     36  C   UNL     1      49.976  79.374  43.221  0.00  0.00    +0.033 C 
BRANCH  35  37
ATOM     37  C   UNL     1      47.983  83.998  43.020  0.00  0.00    +0.042 C 
ATOM     38  C   UNL     1      46.888  84.186  44.037  0.00  0.00    +0.006 C 
ATOM     39  C   UNL     1      48.633  85.375  42.914  0.00  0.00    +0.006 C 
ENDBRANCH  35  37
ENDBRANCH  12  30
BRANCH  20  40
ATOM     40  C   UNL     1      41.648  76.443  38.182  0.00  0.00    +0.058 C 
ATOM     41  C   UNL     1      40.413  76.224  38.504  0.00  0.00    +0.005 C 
ENDBRANCH  20  40
TORSDOF 4
