REMARK  Name = Sparsentan
REMARK  11 active torsions:
REMARK  status: ('A' for Active; 'I' for Inactive)
REMARK    1  A    between atoms: C_2  and  C_3
REMARK    2  A    between atoms: C_3  and  C_4
REMARK    3  A    between atoms: C_4  and  C_5
REMARK    4  A    between atoms: N_14  and  C_15
REMARK    5  A    between atoms: C_15  and  C_16
REMARK    6  A    between atoms: C_18  and  C_39
REMARK    7  A    between atoms: C_19  and  C_22
REMARK    8  A    between atoms: C_27  and  S_28
REMARK    9  A    between atoms: S_28  and  N_31
REMARK   10  A    between atoms: C_39  and  O_40
REMARK   11  A    between atoms: O_40  and  C_41
REMARK                            x       y       z     vdW  Elec       q    Type
REMARK                         _______ _______ _______ _____ _____    ______ ____
ROOT
ATOM      1  C   UNL     1      45.673  80.431  39.373  0.00  0.00    -0.002 A 
ATOM      2  C   UNL     1      46.183  79.997  40.584  0.00  0.00    -0.004 A 
ATOM      3  C   UNL     1      46.888  80.821  41.435  0.00  0.00    +0.007 A 
ATOM      4  C   UNL     1      47.117  82.154  41.102  0.00  0.00    -0.000 A 
ATOM      5  C   UNL     1      46.607  82.576  39.893  0.00  0.00    -0.000 A 
ATOM      6  C   UNL     1      45.895  81.736  39.037  0.00  0.00    -0.003 A 
ENDROOT
BRANCH   4   7
ATOM      7  C   UNL     1      47.833  83.022  42.022  0.00  0.00    +0.019 A 
ATOM      8  C   UNL     1      47.129  83.584  43.098  0.00  0.00    +0.001 A 
ATOM      9  C   UNL     1      47.806  84.445  43.930  0.00  0.00    +0.000 A 
ATOM     10  C   UNL     1      49.137  84.759  43.730  0.00  0.00    +0.001 A 
ATOM     11  C   UNL     1      49.796  84.187  42.662  0.00  0.00    +0.020 A 
ATOM     12  C   UNL     1      49.148  83.314  41.803  0.00  0.00    +0.127 A 
BRANCH  12  13
ATOM     13  S   UNL     1      50.009  82.576  40.490  0.00  0.00    +0.094 S 
ATOM     14  O   UNL     1      51.471  82.824  40.489  0.00  0.00    -0.148 OA
ATOM     15  O   UNL     1      49.489  83.081  39.155  0.00  0.00    -0.148 OA
BRANCH  13  16
ATOM     16  N   UNL     1      49.705  80.879  40.517  0.00  0.00    -0.074 NA
ATOM     17  C   UNL     1      50.159  80.068  41.583  0.00  0.00    +0.209 A 
ATOM     18  N   UNL     1      50.871  80.424  42.688  0.00  0.00    -0.059 NA
ATOM     19  O   UNL     1      51.092  79.376  43.428  0.00  0.00    -0.357 OA
ATOM     20  C   UNL     1      50.577  78.314  42.905  0.00  0.00    +0.152 A 
ATOM     21  C   UNL     1      49.976  78.694  41.739  0.00  0.00    +0.049 A 
ATOM     22  C   UNL     1      49.244  77.829  40.772  0.00  0.00    +0.037 C 
ATOM     23  C   UNL     1      50.598  76.910  43.425  0.00  0.00    +0.075 C 
ENDBRANCH  13  16
ENDBRANCH  12  13
ENDBRANCH   4   7
BRANCH   1  24
ATOM     24  C   UNL     1      44.922  79.461  38.523  0.00  0.00    +0.126 C 
BRANCH  24  34
ATOM     25  C   UNL     1      42.865  78.060  39.331  0.00  0.00    +0.110 C 
ATOM     26  N   UNL     1      42.658  77.127  40.204  0.00  0.00    -0.255 NA
ATOM     27  C   UNL     1      43.847  76.772  40.880  0.00  0.00    +0.154 C 
ATOM     28  C   UNL     1      44.226  75.321  40.759  0.00  0.00    +0.031 C 
ATOM     29  C   UNL     1      43.292  74.676  41.792  0.00  0.00    +0.003 C 
ATOM     30  C   UNL     1      43.172  75.691  42.899  0.00  0.00    +0.003 C 
ATOM     31  C   UNL     1      43.782  76.981  42.377  0.00  0.00    +0.031 C 
ATOM     32  C   UNL     1      44.868  77.679  40.314  0.00  0.00    +0.250 C 
ATOM     33  O   UNL     1      46.080  77.742  40.644  0.00  0.00    -0.272 OA
ATOM     34  N   UNL     1      44.211  78.483  39.309  0.00  0.00    -0.242 N 
BRANCH  25  35
ATOM     35  C   UNL     1      41.776  78.604  38.494  0.00  0.00    +0.061 C 
BRANCH  35  36
ATOM     36  C   UNL     1      40.531  77.771  38.474  0.00  0.00    +0.008 C 
BRANCH  36  38
ATOM     37  C   UNL     1      38.913  76.626  36.913  0.00  0.00    +0.000 C 
ATOM     38  C   UNL     1      39.909  77.738  37.077  0.00  0.00    +0.000 C 
ENDBRANCH  36  38
ENDBRANCH  35  36
ENDBRANCH  25  35
ENDBRANCH  24  34
ENDBRANCH   1  24
BRANCH   3  39
ATOM     39  C   UNL     1      47.458  80.296  42.691  0.00  0.00    +0.169 C 
BRANCH  39  40
ATOM     40  O   UNL     1      46.821  79.186  43.183  0.00  0.00    -0.349 OA
BRANCH  40  41
ATOM     41  C   UNL     1      47.486  78.564  44.211  0.00  0.00    +0.143 C 
ATOM     42  C   UNL     1      46.550  78.360  45.400  0.00  0.00    +0.035 C 
ENDBRANCH  40  41
ENDBRANCH  39  40
ENDBRANCH   3  39
TORSDOF 11
