REMARK  Name = Sparfloxacin
REMARK  3 active torsions:
REMARK  status: ('A' for Active; 'I' for Inactive)
REMARK    1  A    between atoms: N_4  and  C_9
REMARK    2  A    between atoms: N_16  and  C_24
REMARK    3  A    between atoms: C_18  and  C_21
REMARK                            x       y       z     vdW  Elec       q    Type
REMARK                         _______ _______ _______ _____ _____    ______ ____
ROOT
ATOM      1  C   UNL     1      48.002  81.560  41.570  0.00  0.00    +0.106 A 
ATOM      2  C   UNL     1      47.666  82.366  40.494  0.00  0.00    +0.172 A 
ATOM      3  C   UNL     1      46.647  82.060  39.611  0.00  0.00    +0.122 A 
ATOM      4  C   UNL     1      45.924  80.911  39.792  0.00  0.00    +0.076 A 
ATOM      5  C   UNL     1      46.206  80.061  40.845  0.00  0.00    +0.093 A 
ATOM      6  C   UNL     1      47.236  80.415  41.699  0.00  0.00    +0.171 A 
ATOM      7  F   UNL     1      47.483  79.585  42.708  0.00  0.00    -0.201 F 
ATOM      8  N   UNL     1      45.504  78.908  41.057  0.00  0.00    -0.326 N 
ATOM      9  C   UNL     1      44.502  78.567  40.229  0.00  0.00    +0.086 A 
ATOM     10  C   UNL     1      44.188  79.388  39.165  0.00  0.00    +0.136 A 
ATOM     11  C   UNL     1      44.890  80.550  38.944  0.00  0.00    +0.206 A 
ATOM     12  O   UNL     1      44.610  81.306  37.975  0.00  0.00    -0.286 OA
ATOM     13  N   UNL     1      46.314  82.897  38.511  0.00  0.00    -0.126 NA
ATOM     14  F   UNL     1      48.314  83.537  40.206  0.00  0.00    -0.201 F 
ENDROOT
BRANCH   1  18
ATOM     15  C   UNL     1      52.803  82.206  42.367  0.00  0.00    +0.021 C 
ATOM     16  C   UNL     1      51.420  82.223  43.015  0.00  0.00    +0.093 C 
ATOM     17  C   UNL     1      50.424  81.675  41.995  0.00  0.00    +0.108 C 
ATOM     18  N   UNL     1      49.050  81.926  42.437  0.00  0.00    -0.301 N 
ATOM     19  C   UNL     1      49.002  82.516  43.712  0.00  0.00    +0.108 C 
ATOM     20  C   UNL     1      49.754  83.854  43.631  0.00  0.00    +0.093 C 
ATOM     21  N   UNL     1      51.112  83.610  43.248  0.00  0.00    -0.217 NA
ATOM     22  C   UNL     1      49.663  84.506  45.007  0.00  0.00    +0.021 C 
ENDBRANCH   1  18
BRANCH  10  23
ATOM     23  C   UNL     1      43.096  78.989  38.285  0.00  0.00    +0.392 C 
ATOM     24  O   UNL     1      42.427  77.942  38.490  0.00  0.00    -0.240 OA
ATOM     25  O   UNL     1      42.744  79.746  37.181  0.00  0.00    -0.240 OA
ENDBRANCH  10  23
BRANCH   8  26
ATOM     26  C   UNL     1      45.838  78.044  42.172  0.00  0.00    +0.086 C 
ATOM     27  C   UNL     1      46.697  76.838  41.880  0.00  0.00    +0.024 C 
ATOM     28  C   UNL     1      45.242  76.653  42.136  0.00  0.00    +0.024 C 
ENDBRANCH   8  26
TORSDOF 3
