REMARK  Name = Spectinomycin
REMARK  2 active torsions:
REMARK  status: ('A' for Active; 'I' for Inactive)
REMARK    1  A    between atoms: C_12  and  N_20
REMARK    2  A    between atoms: C_14  and  N_17
REMARK                            x       y       z     vdW  Elec       q    Type
REMARK                         _______ _______ _______ _____ _____    ______ ____
ROOT
ATOM      1  C   UNL     1      49.498  85.639  42.380  0.00  0.00    +0.033 C 
ATOM      2  C   UNL     1      48.668  84.362  42.262  0.00  0.00    +0.126 C 
ATOM      3  C   UNL     1      49.044  83.476  43.410  0.00  0.00    +0.099 C 
ATOM      4  C   UNL     1      48.995  82.045  43.085  0.00  0.00    +0.211 C 
ATOM      5  O   UNL     1      49.243  81.234  43.944  0.00  0.00    -0.291 OA
ATOM      6  C   UNL     1      48.651  81.536  41.731  0.00  0.00    +0.323 C 
ATOM      7  C   UNL     1      48.270  82.633  40.784  0.00  0.00    +0.299 C 
ATOM      8  O   UNL     1      48.932  83.819  41.030  0.00  0.00    -0.329 OA
ATOM      9  O   UNL     1      46.915  82.860  40.713  0.00  0.00    -0.324 OA
ATOM     10  C   UNL     1      46.163  81.732  40.530  0.00  0.00    +0.178 C 
ATOM     11  C   UNL     1      45.542  81.627  39.162  0.00  0.00    +0.200 C 
ATOM     12  C   UNL     1      44.448  80.570  39.266  0.00  0.00    +0.137 C 
ATOM     13  C   UNL     1      45.061  79.257  39.622  0.00  0.00    +0.189 C 
ATOM     14  C   UNL     1      45.989  79.308  40.797  0.00  0.00    +0.134 C 
ATOM     15  C   UNL     1      46.978  80.445  40.713  0.00  0.00    +0.166 C 
ATOM     16  O   UNL     1      47.670  80.571  41.889  0.00  0.00    -0.322 OA
ATOM     17  O   UNL     1      44.033  78.345  39.958  0.00  0.00    -0.220 OA
ATOM     18  O   UNL     1      45.090  82.818  38.660  0.00  0.00    -0.219 OA
ATOM     19  O   UNL     1      49.794  80.898  41.239  0.00  0.00    -0.182 OA
ENDROOT
BRANCH  14  20
ATOM     20  N   UNL     1      46.732  78.069  40.834  0.00  0.00    -0.213 NA
ATOM     21  C   UNL     1      46.511  77.298  42.020  0.00  0.00    +0.108 C 
ENDBRANCH  14  20
BRANCH  12  22
ATOM     22  N   UNL     1      43.798  80.458  37.977  0.00  0.00    -0.213 NA
ATOM     23  C   UNL     1      42.748  79.483  38.008  0.00  0.00    +0.108 C 
ENDBRANCH  12  22
TORSDOF 2
