REMARK  Name = Spinosad
REMARK  9 active torsions:
REMARK  status: ('A' for Active; 'I' for Inactive)
REMARK    1  A    between atoms: C_2  and  C_3
REMARK    2  A    between atoms: C_7  and  O_42
REMARK    3  A    between atoms: C_16  and  O_27
REMARK    4  A    between atoms: O_27  and  C_28
REMARK    5  A    between atoms: C_29  and  O_39
REMARK    6  A    between atoms: C_30  and  O_37
REMARK    7  A    between atoms: C_31  and  O_35
REMARK    8  A    between atoms: O_42  and  C_43
REMARK    9  A    between atoms: C_46  and  N_50
REMARK                            x       y       z     vdW  Elec       q    Type
REMARK                         _______ _______ _______ _____ _____    ______ ____
ROOT
ATOM      1  C   UNL     1      44.361  76.119  41.846  0.00  0.00    +0.169 C 
ATOM      2  C   UNL     1      43.047  75.642  41.285  0.00  0.00    +0.044 C 
ATOM      3  C   UNL     1      42.236  76.568  40.502  0.00  0.00    +0.006 C 
ATOM      4  C   UNL     1      42.761  77.917  40.179  0.00  0.00    +0.030 C 
ATOM      5  C   UNL     1      42.618  78.365  38.763  0.00  0.00    +0.125 C 
ATOM      6  C   UNL     1      43.952  78.713  38.085  0.00  0.00    +0.089 C 
ATOM      7  C   UNL     1      44.545  79.953  38.545  0.00  0.00    +0.171 C 
ATOM      8  O   UNL     1      44.221  81.032  37.870  0.00  0.00    -0.292 OA
ATOM      9  C   UNL     1      45.457  80.209  39.648  0.00  0.00    +0.009 C 
ATOM     10  C   UNL     1      45.326  81.235  40.531  0.00  0.00    -0.028 C 
ATOM     11  C   UNL     1      46.454  81.174  41.514  0.00  0.00    +0.027 C 
ATOM     12  C   UNL     1      46.919  82.560  41.893  0.00  0.00    +0.011 C 
ATOM     13  C   UNL     1      48.300  82.555  42.456  0.00  0.00    +0.030 C 
ATOM     14  C   UNL     1      49.066  83.689  41.760  0.00  0.00    +0.118 C 
ATOM     15  C   UNL     1      47.931  84.562  41.283  0.00  0.00    +0.034 C 
ATOM     16  C   UNL     1      46.999  83.483  40.700  0.00  0.00    +0.025 C 
ATOM     17  C   UNL     1      47.651  82.820  39.546  0.00  0.00    -0.031 C 
ATOM     18  C   UNL     1      47.879  81.520  39.534  0.00  0.00    -0.030 C 
ATOM     19  C   UNL     1      47.534  80.598  40.611  0.00  0.00    +0.030 C 
ATOM     20  C   UNL     1      46.658  79.446  40.020  0.00  0.00    +0.040 C 
ATOM     21  C   UNL     1      46.482  78.529  41.214  0.00  0.00    +0.114 C 
ATOM     22  C   UNL     1      46.462  77.090  40.861  0.00  0.00    +0.317 C 
ATOM     23  O   UNL     1      47.576  76.580  40.561  0.00  0.00    -0.250 OA
ATOM     24  O   UNL     1      45.287  76.418  40.876  0.00  0.00    -0.452 OA
ATOM     25  C   UNL     1      44.815  77.539  37.853  0.00  0.00    +0.011 C 
ENDROOT
BRANCH   1  27
ATOM     26  C   UNL     1      44.683  76.293  44.232  0.00  0.00    +0.004 C 
ATOM     27  C   UNL     1      44.214  77.071  42.987  0.00  0.00    +0.044 C 
ENDBRANCH   1  27
BRANCH  14  28
ATOM     28  O   UNL     1      49.898  84.249  42.677  0.00  0.00    -0.331 OA
BRANCH  28  29
ATOM     29  C   UNL     1      50.882  83.429  43.173  0.00  0.00    +0.266 C 
ATOM     30  C   UNL     1      51.053  83.779  44.635  0.00  0.00    +0.201 C 
ATOM     31  C   UNL     1      51.589  82.613  45.434  0.00  0.00    +0.177 C 
ATOM     32  C   UNL     1      52.347  81.699  44.493  0.00  0.00    +0.172 C 
ATOM     33  C   UNL     1      51.391  81.188  43.468  0.00  0.00    +0.147 C 
ATOM     34  O   UNL     1      50.483  82.109  42.996  0.00  0.00    -0.329 OA
ATOM     35  C   UNL     1      52.222  80.581  42.335  0.00  0.00    +0.035 C 
BRANCH  32  36
ATOM     36  O   UNL     1      52.783  80.615  45.254  0.00  0.00    -0.349 OA
ATOM     37  C   UNL     1      53.021  80.970  46.577  0.00  0.00    +0.174 C 
ENDBRANCH  32  36
BRANCH  31  38
ATOM     38  O   UNL     1      52.324  83.007  46.529  0.00  0.00    -0.348 OA
ATOM     39  C   UNL     1      51.795  84.188  47.036  0.00  0.00    +0.174 C 
ENDBRANCH  31  38
BRANCH  30  40
ATOM     40  O   UNL     1      51.914  84.857  44.720  0.00  0.00    -0.346 OA
ATOM     41  C   UNL     1      51.339  86.066  44.356  0.00  0.00    +0.174 C 
ENDBRANCH  30  40
ENDBRANCH  28  29
ENDBRANCH  14  28
BRANCH   5  42
ATOM     42  O   UNL     1      41.952  77.381  38.016  0.00  0.00    -0.333 OA
BRANCH  42  43
ATOM     43  C   UNL     1      40.618  77.277  38.388  0.00  0.00    +0.235 C 
ATOM     44  C   UNL     1      40.220  75.879  38.725  0.00  0.00    +0.063 C 
ATOM     45  C   UNL     1      39.742  75.165  37.454  0.00  0.00    +0.024 C 
ATOM     46  C   UNL     1      38.578  75.942  36.933  0.00  0.00    +0.085 C 
ATOM     47  C   UNL     1      38.571  77.357  37.461  0.00  0.00    +0.132 C 
ATOM     48  O   UNL     1      39.872  77.841  37.358  0.00  0.00    -0.332 OA
ATOM     49  C   UNL     1      37.650  78.179  36.596  0.00  0.00    +0.034 C 
BRANCH  46  50
ATOM     50  N   UNL     1      38.463  75.950  35.498  0.00  0.00    -0.269 NA
ATOM     51  C   UNL     1      37.452  76.890  35.048  0.00  0.00    +0.090 C 
ATOM     52  C   UNL     1      38.170  74.671  34.934  0.00  0.00    +0.090 C 
ENDBRANCH  46  50
ENDBRANCH  42  43
ENDBRANCH   5  42
TORSDOF 9
