REMARK  Name = Spironolactone
REMARK  2 active torsions:
REMARK  status: ('A' for Active; 'I' for Inactive)
REMARK    1  A    between atoms: C_2  and  S_4
REMARK    2  A    between atoms: S_4  and  C_5
REMARK                            x       y       z     vdW  Elec       q    Type
REMARK                         _______ _______ _______ _____ _____    ______ ____
ROOT
ATOM      1  C   UNL     1      47.177  79.801  41.892  0.00  0.00    +0.059 C 
ATOM      2  C   UNL     1      47.784  79.582  40.532  0.00  0.00    +0.033 C 
ATOM      3  C   UNL     1      46.877  80.438  39.667  0.00  0.00    -0.041 C 
ATOM      4  C   UNL     1      47.359  81.509  39.060  0.00  0.00    +0.029 C 
ATOM      5  C   UNL     1      46.494  82.344  38.226  0.00  0.00    +0.173 C 
ATOM      6  O   UNL     1      46.954  82.911  37.248  0.00  0.00    -0.291 OA
ATOM      7  C   UNL     1      45.096  82.371  38.737  0.00  0.00    +0.069 C 
ATOM      8  C   UNL     1      44.633  80.958  38.792  0.00  0.00    +0.012 C 
ATOM      9  C   UNL     1      45.485  79.994  39.566  0.00  0.00    +0.016 C 
ATOM     10  C   UNL     1      44.880  79.586  40.896  0.00  0.00    +0.004 C 
ATOM     11  C   UNL     1      45.835  79.130  41.941  0.00  0.00    +0.011 C 
ATOM     12  C   UNL     1      45.929  77.632  42.093  0.00  0.00    +0.004 C 
ATOM     13  C   UNL     1      46.544  77.181  43.370  0.00  0.00    +0.004 C 
ATOM     14  C   UNL     1      45.855  75.875  43.728  0.00  0.00    +0.040 C 
ATOM     15  C   UNL     1      44.767  75.689  42.697  0.00  0.00    +0.136 C 
ATOM     16  C   UNL     1      44.501  77.112  42.295  0.00  0.00    +0.034 C 
ATOM     17  C   UNL     1      43.863  77.262  40.962  0.00  0.00    +0.003 C 
ATOM     18  C   UNL     1      43.683  78.713  40.711  0.00  0.00    +0.000 C 
ATOM     19  C   UNL     1      43.796  77.800  43.414  0.00  0.00    +0.003 C 
ATOM     20  C   UNL     1      43.605  75.001  43.330  0.00  0.00    +0.052 C 
ATOM     21  C   UNL     1      43.999  73.528  43.220  0.00  0.00    +0.113 C 
ATOM     22  C   UNL     1      44.834  73.526  41.992  0.00  0.00    +0.317 C 
ATOM     23  O   UNL     1      45.215  72.510  41.363  0.00  0.00    -0.250 OA
ATOM     24  O   UNL     1      45.128  74.838  41.649  0.00  0.00    -0.456 OA
ATOM     25  C   UNL     1      45.577  78.766  38.627  0.00  0.00    +0.004 C 
ENDROOT
BRANCH   1  26
ATOM     26  S   UNL     1      48.263  79.386  43.241  0.00  0.00    -0.078 S 
BRANCH  26  28
ATOM     27  C   UNL     1      51.075  79.464  43.070  0.00  0.00    +0.085 C 
ATOM     28  C   UNL     1      49.806  80.261  43.001  0.00  0.00    +0.199 C 
ATOM     29  O   UNL     1      49.894  81.440  42.788  0.00  0.00    -0.285 OA
ENDBRANCH  26  28
ENDBRANCH   1  26
TORSDOF 2
