REMARK  Name = Spirapril
REMARK  10 active torsions:
REMARK  status: ('A' for Active; 'I' for Inactive)
REMARK    1  A    between atoms: C_2  and  O_3
REMARK    2  A    between atoms: O_3  and  C_4
REMARK    3  A    between atoms: C_4  and  C_6
REMARK    4  A    between atoms: C_6  and  C_7
REMARK    5  A    between atoms: C_6  and  N_15
REMARK    6  A    between atoms: C_7  and  C_8
REMARK    7  A    between atoms: C_8  and  C_9
REMARK    8  A    between atoms: N_15  and  CA_16
REMARK    9  A    between atoms: CA_16  and  C_18
REMARK   10  A    between atoms: C_24  and  C_25
REMARK                            x       y       z     vdW  Elec       q    Type
REMARK                         _______ _______ _______ _____ _____    ______ ____
ROOT
ATOM      1  CA  ALA A   1      46.437  81.403  39.636  0.00  0.00    +0.149 C 
ATOM      2  CB  ALA A   1      46.948  82.563  38.822  0.00  0.00    +0.029 C 
ENDROOT
BRANCH   1   3
ATOM      3  C   ALA A   1      47.648  80.855  40.349  0.00  0.00    +0.242 C 
ATOM      4  O   ALA A   1      47.976  79.635  40.133  0.00  0.00    -0.273 OA
ATOM      5  N   UNK A   2      48.434  81.591  41.232  0.00  0.00    -0.268 N 
ATOM      6  C   UNK A   2      48.332  83.041  41.458  0.00  0.00    +0.114 C 
ATOM      7  C   UNK A   2      48.877  83.270  42.849  0.00  0.00    +0.098 C 
ATOM      8  C   UNK A   2      49.314  81.926  43.391  0.00  0.00    +0.053 C 
ATOM      9  C   UNK A   2      49.515  81.149  42.081  0.00  0.00    +0.181 C 
ATOM     10  S   UNK A   2      47.718  84.117  43.929  0.00  0.00    -0.129 S 
ATOM     11  C   UNK A   2      48.583  85.599  44.504  0.00  0.00    +0.070 C 
ATOM     12  C   UNK A   2      50.049  85.337  44.365  0.00  0.00    +0.070 C 
ATOM     13  S   UNK A   2      50.286  84.423  42.823  0.00  0.00    -0.129 S 
BRANCH   9  14
ATOM     14  C   UNK A   2      50.805  81.588  41.454  0.00  0.00    +0.383 C 
ATOM     15  O   UNK A   2      50.835  82.254  40.399  0.00  0.00    -0.244 OA
ATOM     16  O   UNK A   2      51.992  81.245  42.067  0.00  0.00    -0.244 OA
ENDBRANCH   9  14
ENDBRANCH   1   3
BRANCH   1  17
ATOM     17  N   ALA A   1      45.854  80.363  38.902  0.00  0.00    -0.201 NA
BRANCH  17  18
ATOM     18  C   UNK A   0      45.289  79.234  39.536  0.00  0.00    +0.172 C 
BRANCH  18  19
ATOM     19  C   UNK A   0      44.978  79.396  40.950  0.00  0.00    +0.333 C 
ATOM     20  O   UNK A   0      44.412  80.422  41.372  0.00  0.00    -0.249 OA
BRANCH  19  21
ATOM     21  O   UNK A   0      45.277  78.446  41.926  0.00  0.00    -0.448 OA
BRANCH  21  23
ATOM     22  C   UNK A   0      44.991  77.371  44.079  0.00  0.00    +0.051 C 
ATOM     23  C   UNK A   0      44.842  78.621  43.283  0.00  0.00    +0.209 C 
ENDBRANCH  21  23
ENDBRANCH  19  21
ENDBRANCH  18  19
BRANCH  18  24
ATOM     24  C   UNK A   0      44.203  78.624  38.727  0.00  0.00    +0.033 C 
BRANCH  24  25
ATOM     25  C   UNK A   0      43.665  77.301  39.230  0.00  0.00    +0.028 C 
BRANCH  25  26
ATOM     26  C   UNK A   0      42.270  77.171  38.723  0.00  0.00    -0.022 A 
ATOM     27  C   UNK A   0      41.493  76.116  39.123  0.00  0.00    -0.004 A 
ATOM     28  C   UNK A   0      40.187  76.007  38.641  0.00  0.00    -0.000 A 
ATOM     29  C   UNK A   0      39.662  76.953  37.760  0.00  0.00    -0.000 A 
ATOM     30  C   UNK A   0      40.458  78.004  37.370  0.00  0.00    -0.000 A 
ATOM     31  C   UNK A   0      41.768  78.114  37.854  0.00  0.00    -0.004 A 
ENDBRANCH  25  26
ENDBRANCH  24  25
ENDBRANCH  18  24
ENDBRANCH  17  18
ENDBRANCH   1  17
TORSDOF 10
