REMARK  Name = Spiramycin
REMARK  11 active torsions:
REMARK  status: ('A' for Active; 'I' for Inactive)
REMARK    1  A    between atoms: C_8  and  O_49
REMARK    2  A    between atoms: C_11  and  C_45
REMARK    3  A    between atoms: C_12  and  O_22
REMARK    4  A    between atoms: C_13  and  O_20
REMARK    5  A    between atoms: O_22  and  C_23
REMARK    6  A    between atoms: C_25  and  N_41
REMARK    7  A    between atoms: C_26  and  O_30
REMARK    8  A    between atoms: O_30  and  C_31
REMARK    9  A    between atoms: C_45  and  C_46
REMARK   10  A    between atoms: O_49  and  C_50
REMARK   11  A    between atoms: C_53  and  N_57
REMARK                            x       y       z     vdW  Elec       q    Type
REMARK                         _______ _______ _______ _____ _____    ______ ____
ROOT
ATOM      1  C   UNL     1      43.524  71.869  40.132  0.00  0.00    +0.048 C 
ATOM      2  C   UNL     1      42.931  72.684  41.306  0.00  0.00    +0.173 C 
ATOM      3  C   UNL     1      42.177  73.822  40.675  0.00  0.00    +0.070 C 
ATOM      4  C   UNL     1      40.727  73.608  40.501  0.00  0.00    -0.022 C 
ATOM      5  C   UNL     1      39.802  74.559  40.544  0.00  0.00    -0.005 C 
ATOM      6  C   UNL     1      39.965  75.979  40.760  0.00  0.00    -0.003 C 
ATOM      7  C   UNL     1      40.321  76.947  39.985  0.00  0.00    +0.003 C 
ATOM      8  C   UNL     1      40.702  76.998  38.560  0.00  0.00    +0.140 C 
ATOM      9  C   UNL     1      42.020  77.785  38.368  0.00  0.00    +0.032 C 
ATOM     10  C   UNL     1      42.987  77.403  39.455  0.00  0.00    +0.006 C 
ATOM     11  C   UNL     1      44.411  77.867  39.276  0.00  0.00    +0.038 C 
ATOM     12  C   UNL     1      45.168  77.883  40.540  0.00  0.00    +0.148 C 
ATOM     13  C   UNL     1      44.715  76.874  41.607  0.00  0.00    +0.173 C 
ATOM     14  C   UNL     1      45.503  75.587  41.539  0.00  0.00    +0.192 C 
ATOM     15  C   UNL     1      45.500  74.799  42.829  0.00  0.00    +0.145 C 
ATOM     16  C   UNL     1      44.255  74.009  43.037  0.00  0.00    +0.320 C 
ATOM     17  O   UNL     1      43.596  74.399  44.086  0.00  0.00    -0.250 OA
ATOM     18  O   UNL     1      43.903  73.019  42.213  0.00  0.00    -0.452 OA
ATOM     19  O   UNL     1      45.183  74.770  40.473  0.00  0.00    -0.220 OA
ATOM     20  C   UNL     1      41.680  79.281  38.430  0.00  0.00    +0.003 C 
ENDROOT
BRANCH  13  21
ATOM     21  O   UNL     1      44.958  77.532  42.814  0.00  0.00    -0.348 OA
ATOM     22  C   UNL     1      46.245  77.575  43.248  0.00  0.00    +0.174 C 
ENDBRANCH  13  21
BRANCH  12  23
ATOM     23  O   UNL     1      45.058  79.187  41.053  0.00  0.00    -0.328 OA
BRANCH  23  24
ATOM     24  C   UNL     1      45.912  80.132  40.616  0.00  0.00    +0.268 C 
ATOM     25  C   UNL     1      47.317  79.640  40.364  0.00  0.00    +0.225 C 
ATOM     26  C   UNL     1      48.143  79.704  41.652  0.00  0.00    +0.123 C 
ATOM     27  C   UNL     1      48.355  81.101  42.111  0.00  0.00    +0.162 C 
ATOM     28  C   UNL     1      47.167  81.888  41.497  0.00  0.00    +0.146 C 
ATOM     29  O   UNL     1      46.090  81.005  41.768  0.00  0.00    -0.329 OA
ATOM     30  C   UNL     1      46.869  83.120  42.331  0.00  0.00    +0.035 C 
ATOM     31  O   UNL     1      47.935  80.242  39.289  0.00  0.00    -0.216 OA
BRANCH  26  32
ATOM     32  N   UNL     1      49.231  78.849  41.624  0.00  0.00    -0.267 NA
ATOM     33  C   UNL     1      49.818  78.389  40.449  0.00  0.00    +0.090 C 
ATOM     34  C   UNL     1      50.166  78.969  42.703  0.00  0.00    +0.090 C 
ENDBRANCH  26  32
BRANCH  27  35
ATOM     35  O   UNL     1      49.563  81.665  41.870  0.00  0.00    -0.329 OA
BRANCH  35  36
ATOM     36  C   UNL     1      49.594  83.042  42.123  0.00  0.00    +0.238 C 
ATOM     37  C   UNL     1      50.759  83.609  41.377  0.00  0.00    +0.094 C 
ATOM     38  C   UNL     1      51.828  84.028  42.344  0.00  0.00    +0.162 C 
ATOM     39  C   UNL     1      51.943  82.965  43.418  0.00  0.00    +0.207 C 
ATOM     40  C   UNL     1      50.663  82.953  44.208  0.00  0.00    +0.151 C 
ATOM     41  O   UNL     1      49.561  83.278  43.472  0.00  0.00    -0.330 OA
ATOM     42  C   UNL     1      50.724  83.933  45.376  0.00  0.00    +0.035 C 
ATOM     43  O   UNL     1      52.050  81.719  42.769  0.00  0.00    -0.218 OA
ATOM     44  C   UNL     1      53.164  84.212  41.636  0.00  0.00    +0.036 C 
ATOM     45  O   UNL     1      51.467  85.233  42.914  0.00  0.00    -0.223 OA
ENDBRANCH  35  36
ENDBRANCH  27  35
ENDBRANCH  23  24
ENDBRANCH  12  23
BRANCH  11  46
ATOM     46  C   UNL     1      45.113  77.185  38.161  0.00  0.00    +0.075 C 
BRANCH  46  47
ATOM     47  C   UNL     1      45.121  77.978  36.912  0.00  0.00    +0.207 C 
ATOM     48  O   UNL     1      44.664  79.068  36.737  0.00  0.00    -0.288 OA
ENDBRANCH  46  47
ENDBRANCH  11  46
BRANCH   8  49
ATOM     49  O   UNL     1      40.974  75.747  38.033  0.00  0.00    -0.329 OA
BRANCH  49  50
ATOM     50  C   UNL     1      39.915  75.245  37.282  0.00  0.00    +0.235 C 
ATOM     51  C   UNL     1      40.030  75.462  35.816  0.00  0.00    +0.063 C 
ATOM     52  C   UNL     1      38.873  74.699  35.155  0.00  0.00    +0.024 C 
ATOM     53  C   UNL     1      37.607  75.295  35.706  0.00  0.00    +0.085 C 
ATOM     54  C   UNL     1      37.858  76.243  36.864  0.00  0.00    +0.132 C 
ATOM     55  O   UNL     1      38.685  75.642  37.785  0.00  0.00    -0.332 OA
ATOM     56  C   UNL     1      36.490  76.485  37.520  0.00  0.00    +0.034 C 
BRANCH  53  57
ATOM     57  N   UNL     1      36.781  75.934  34.714  0.00  0.00    -0.269 NA
ATOM     58  C   UNL     1      37.138  77.278  34.391  0.00  0.00    +0.090 C 
ATOM     59  C   UNL     1      36.476  75.115  33.578  0.00  0.00    +0.090 C 
ENDBRANCH  53  57
ENDBRANCH  49  50
ENDBRANCH   8  49
TORSDOF 11
