REMARK  Name = Stanozolol
REMARK  0 active torsions:
REMARK  status: ('A' for Active; 'I' for Inactive)
REMARK                            x       y       z     vdW  Elec       q    Type
REMARK                         _______ _______ _______ _____ _____    ______ ____
ROOT
ATOM      1  C   UNL     1      51.081  83.540  41.328  0.00  0.00    +0.002 C 
ATOM      2  C   UNL     1      50.634  82.857  42.596  0.00  0.00    +0.026 C 
ATOM      3  C   UNL     1      50.449  81.397  42.428  0.00  0.00    +0.002 C 
ATOM      4  C   UNL     1      49.389  81.195  41.352  0.00  0.00    +0.000 C 
ATOM      5  C   UNL     1      48.093  81.785  41.806  0.00  0.00    +0.000 C 
ATOM      6  C   UNL     1      48.190  83.234  42.201  0.00  0.00    +0.000 C 
ATOM      7  C   UNL     1      49.324  83.437  43.121  0.00  0.00    +0.002 C 
ATOM      8  C   UNL     1      49.728  84.843  43.385  0.00  0.00    +0.003 C 
ATOM      9  C   UNL     1      51.142  84.725  43.918  0.00  0.00    +0.030 C 
ATOM     10  C   UNL     1      51.558  83.269  43.696  0.00  0.00    +0.127 C 
ATOM     11  C   UNL     1      53.015  83.179  43.300  0.00  0.00    +0.033 C 
ATOM     12  O   UNL     1      51.313  82.584  44.862  0.00  0.00    -0.226 OA
ATOM     13  C   UNL     1      46.906  83.592  42.921  0.00  0.00    +0.000 C 
ATOM     14  C   UNL     1      45.857  82.537  42.789  0.00  0.00    +0.000 C 
ATOM     15  C   UNL     1      45.711  82.016  41.378  0.00  0.00    +0.006 C 
ATOM     16  C   UNL     1      47.011  81.568  40.785  0.00  0.00    +0.005 C 
ATOM     17  C   UNL     1      47.018  80.083  40.423  0.00  0.00    +0.029 C 
ATOM     18  C   UNL     1      45.822  79.862  39.567  0.00  0.00    +0.014 A 
ATOM     19  C   UNL     1      44.613  80.298  40.069  0.00  0.00    +0.078 A 
ATOM     20  C   UNL     1      44.648  80.939  41.409  0.00  0.00    +0.047 C 
ATOM     21  N   UNL     1      43.663  80.011  39.160  0.00  0.00    -0.153 NA
ATOM     22  N   UNL     1      44.264  79.419  38.134  0.00  0.00    -0.147 NA
ATOM     23  C   UNL     1      45.579  79.307  38.337  0.00  0.00    +0.119 A 
ATOM     24  C   UNL     1      47.321  82.325  39.499  0.00  0.00    +0.000 C 
ENDROOT
TORSDOF 0
