REMARK  Name = Stavudine
REMARK  2 active torsions:
REMARK  status: ('A' for Active; 'I' for Inactive)
REMARK    1  A    between atoms: N_4  and  C_10
REMARK    2  A    between atoms: C_13  and  C_15
REMARK                            x       y       z     vdW  Elec       q    Type
REMARK                         _______ _______ _______ _____ _____    ______ ____
ROOT
ATOM      1  C   UNL     1      44.510  77.574  40.836  0.00  0.00    +0.038 C 
ATOM      2  C   UNL     1      44.761  78.883  40.156  0.00  0.00    +0.053 A 
ATOM      3  C   UNL     1      45.742  79.753  40.616  0.00  0.00    +0.083 A 
ATOM      4  N   UNL     1      45.986  80.933  40.024  0.00  0.00    -0.252 N 
ATOM      5  C   UNL     1      45.242  81.256  38.952  0.00  0.00    +0.355 A 
ATOM      6  O   UNL     1      45.444  82.347  38.378  0.00  0.00    -0.244 OA
ATOM      7  N   UNL     1      44.273  80.429  38.472  0.00  0.00    -0.153 NA
ATOM      8  C   UNL     1      44.011  79.237  39.054  0.00  0.00    +0.280 A 
ATOM      9  O   UNL     1      43.124  78.454  38.634  0.00  0.00    -0.265 OA
ENDROOT
BRANCH   4  10
ATOM     10  C   UNL     1      47.006  81.832  40.507  0.00  0.00    +0.232 C 
ATOM     11  C   UNL     1      48.160  81.953  39.604  0.00  0.00    +0.025 C 
ATOM     12  C   UNL     1      49.254  82.052  40.331  0.00  0.00    +0.005 C 
ATOM     13  C   UNL     1      48.831  81.997  41.755  0.00  0.00    +0.172 C 
ATOM     14  O   UNL     1      47.543  81.464  41.709  0.00  0.00    -0.327 OA
BRANCH  13  15
ATOM     15  C   UNL     1      48.841  83.353  42.419  0.00  0.00    +0.216 C 
ATOM     16  O   UNL     1      50.165  83.686  42.679  0.00  0.00    -0.217 OA
ENDBRANCH  13  15
ENDBRANCH   4  10
TORSDOF 2
