REMARK  Name = Stevioside
REMARK  10 active torsions:
REMARK  status: ('A' for Active; 'I' for Inactive)
REMARK    1  A    between atoms: C_6  and  C_43
REMARK    2  A    between atoms: C_14  and  O_19
REMARK    3  A    between atoms: O_19  and  C_20
REMARK    4  A    between atoms: C_21  and  O_30
REMARK    5  A    between atoms: C_24  and  C_26
REMARK    6  A    between atoms: O_30  and  C_31
REMARK    7  A    between atoms: C_35  and  C_37
REMARK    8  A    between atoms: C_43  and  O_45
REMARK    9  A    between atoms: O_45  and  C_46
REMARK   10  A    between atoms: C_50  and  C_52
REMARK                            x       y       z     vdW  Elec       q    Type
REMARK                         _______ _______ _______ _____ _____    ______ ____
ROOT
ATOM      1  C   UNL     1      45.969  80.664  41.847  0.00  0.00    +0.000 C 
ATOM      2  C   UNL     1      46.601  79.657  40.915  0.00  0.00    +0.001 C 
ATOM      3  C   UNL     1      47.526  78.825  41.819  0.00  0.00    +0.000 C 
ATOM      4  C   UNL     1      48.731  78.358  41.042  0.00  0.00    +0.001 C 
ATOM      5  C   UNL     1      49.631  79.496  40.651  0.00  0.00    +0.011 C 
ATOM      6  C   UNL     1      48.807  80.738  40.260  0.00  0.00    +0.090 C 
ATOM      7  C   UNL     1      47.469  80.247  39.862  0.00  0.00    +0.010 C 
ATOM      8  C   UNL     1      46.652  81.160  38.992  0.00  0.00    +0.001 C 
ATOM      9  C   UNL     1      45.652  80.315  38.259  0.00  0.00    +0.000 C 
ATOM     10  C   UNL     1      45.297  79.014  38.838  0.00  0.00    +0.006 C 
ATOM     11  C   UNL     1      45.569  78.763  40.263  0.00  0.00    +0.000 C 
ATOM     12  C   UNL     1      44.325  78.624  41.129  0.00  0.00    +0.003 C 
ATOM     13  C   UNL     1      43.542  77.448  40.581  0.00  0.00    +0.031 C 
ATOM     14  C   UNL     1      43.604  77.398  39.044  0.00  0.00    +0.110 C 
ATOM     15  C   UNL     1      43.778  78.837  38.619  0.00  0.00    +0.032 C 
ATOM     16  C   UNL     1      44.884  76.778  38.608  0.00  0.00    -0.020 C 
ATOM     17  C   UNL     1      45.256  75.517  38.786  0.00  0.00    -0.007 C 
ATOM     18  C   UNL     1      45.698  77.832  37.932  0.00  0.00    +0.024 C 
ATOM     19  C   UNL     1      49.482  81.238  38.963  0.00  0.00    +0.011 C 
ENDROOT
BRANCH   6  20
ATOM     20  C   UNL     1      48.892  81.766  41.285  0.00  0.00    +0.318 C 
ATOM     21  O   UNL     1      47.844  82.251  41.776  0.00  0.00    -0.250 OA
BRANCH  20  22
ATOM     22  O   UNL     1      50.090  82.250  41.769  0.00  0.00    -0.422 OA
BRANCH  22  23
ATOM     23  C   UNL     1      50.086  83.390  42.563  0.00  0.00    +0.324 C 
ATOM     24  C   UNL     1      50.733  83.122  43.888  0.00  0.00    +0.254 C 
ATOM     25  C   UNL     1      50.671  84.423  44.673  0.00  0.00    +0.221 C 
ATOM     26  C   UNL     1      49.966  85.525  43.933  0.00  0.00    +0.215 C 
ATOM     27  C   UNL     1      48.702  85.071  43.258  0.00  0.00    +0.185 C 
ATOM     28  O   UNL     1      48.753  83.741  42.863  0.00  0.00    -0.316 OA
ATOM     29  O   UNL     1      49.633  86.517  44.854  0.00  0.00    -0.218 OA
ATOM     30  O   UNL     1      50.113  84.197  45.933  0.00  0.00    -0.217 OA
ATOM     31  O   UNL     1      52.012  82.653  43.758  0.00  0.00    -0.213 OA
BRANCH  27  32
ATOM     32  C   UNL     1      47.462  85.286  44.096  0.00  0.00    +0.214 C 
ATOM     33  O   UNL     1      46.387  85.401  43.213  0.00  0.00    -0.218 OA
ENDBRANCH  27  32
ENDBRANCH  22  23
ENDBRANCH  20  22
ENDBRANCH   6  20
BRANCH  14  34
ATOM     34  O   UNL     1      42.474  76.793  38.574  0.00  0.00    -0.330 OA
BRANCH  34  35
ATOM     35  C   UNL     1      41.293  77.083  39.194  0.00  0.00    +0.266 C 
ATOM     36  C   UNL     1      40.146  76.258  38.658  0.00  0.00    +0.207 C 
ATOM     37  C   UNL     1      40.383  74.779  38.797  0.00  0.00    +0.217 C 
ATOM     38  C   UNL     1      41.419  74.567  39.904  0.00  0.00    +0.214 C 
ATOM     39  C   UNL     1      41.102  75.606  40.960  0.00  0.00    +0.183 C 
ATOM     40  O   UNL     1      41.476  76.883  40.565  0.00  0.00    -0.326 OA
ATOM     41  O   UNL     1      41.247  73.294  40.472  0.00  0.00    -0.218 OA
ATOM     42  O   UNL     1      39.214  74.153  39.252  0.00  0.00    -0.218 OA
BRANCH  39  43
ATOM     43  C   UNL     1      41.694  75.240  42.296  0.00  0.00    +0.214 C 
ATOM     44  O   UNL     1      42.804  74.426  42.126  0.00  0.00    -0.218 OA
ENDBRANCH  39  43
BRANCH  36  45
ATOM     45  O   UNL     1      38.982  76.680  39.264  0.00  0.00    -0.323 OA
BRANCH  45  46
ATOM     46  C   UNL     1      37.832  76.316  38.608  0.00  0.00    +0.270 C 
ATOM     47  C   UNL     1      36.942  77.493  38.254  0.00  0.00    +0.241 C 
ATOM     48  C   UNL     1      37.453  78.266  37.059  0.00  0.00    +0.220 C 
ATOM     49  C   UNL     1      37.921  77.340  35.962  0.00  0.00    +0.214 C 
ATOM     50  C   UNL     1      38.711  76.182  36.512  0.00  0.00    +0.183 C 
ATOM     51  O   UNL     1      38.041  75.498  37.512  0.00  0.00    -0.326 OA
ATOM     52  O   UNL     1      36.865  76.873  35.181  0.00  0.00    -0.218 OA
ATOM     53  O   UNL     1      38.480  79.149  37.379  0.00  0.00    -0.217 OA
ATOM     54  O   UNL     1      35.661  77.018  37.890  0.00  0.00    -0.215 OA
BRANCH  50  55
ATOM     55  C   UNL     1      39.141  75.290  35.377  0.00  0.00    +0.214 C 
ATOM     56  O   UNL     1      38.277  74.245  35.128  0.00  0.00    -0.218 OA
ENDBRANCH  50  55
ENDBRANCH  45  46
ENDBRANCH  36  45
ENDBRANCH  34  35
ENDBRANCH  14  34
TORSDOF 10
