REMARK  Name = Stiripentol
REMARK  3 active torsions:
REMARK  status: ('A' for Active; 'I' for Inactive)
REMARK    1  A    between atoms: C_2  and  C_5
REMARK    2  A    between atoms: C_5  and  C_6
REMARK    3  A    between atoms: C_7  and  C_8
REMARK                            x       y       z     vdW  Elec       q    Type
REMARK                         _______ _______ _______ _____ _____    ______ ____
ROOT
ATOM      1  C   UNL     1      46.896  81.158  40.833  0.00  0.00    +0.003 A 
ATOM      2  C   UNL     1      46.105  80.018  40.848  0.00  0.00    +0.040 A 
ATOM      3  C   UNL     1      45.119  79.828  39.914  0.00  0.00    +0.176 A 
ATOM      4  C   UNL     1      44.862  80.746  38.921  0.00  0.00    +0.176 A 
ATOM      5  C   UNL     1      45.653  81.868  38.920  0.00  0.00    +0.040 A 
ATOM      6  C   UNL     1      46.666  82.088  39.860  0.00  0.00    +0.003 A 
ATOM      7  O   UNL     1      43.804  80.305  38.102  0.00  0.00    -0.435 OA
ATOM      8  C   UNL     1      43.459  79.007  38.538  0.00  0.00    +0.429 C 
ATOM      9  O   UNL     1      44.197  78.779  39.714  0.00  0.00    -0.435 OA
ENDROOT
BRANCH   1  11
ATOM     10  C   UNL     1      48.472  82.525  42.024  0.00  0.00    +0.006 C 
ATOM     11  C   UNL     1      47.936  81.362  41.815  0.00  0.00    -0.002 C 
BRANCH  10  12
ATOM     12  C   UNL     1      49.670  82.699  42.929  0.00  0.00    +0.174 C 
ATOM     13  O   UNL     1      49.501  81.999  44.121  0.00  0.00    -0.218 OA
BRANCH  12  15
ATOM     14  C   UNL     1      48.498  84.681  43.739  0.00  0.00    +0.003 C 
ATOM     15  C   UNL     1      49.802  84.188  43.169  0.00  0.00    +0.032 C 
ATOM     16  C   UNL     1      50.208  84.904  41.916  0.00  0.00    +0.003 C 
ATOM     17  C   UNL     1      50.908  84.361  44.208  0.00  0.00    +0.003 C 
ENDBRANCH  12  15
ENDBRANCH  10  12
ENDBRANCH   1  11
TORSDOF 3
