REMARK  Name = Streptomycin
REMARK  9 active torsions:
REMARK  status: ('A' for Active; 'I' for Inactive)
REMARK    1  A    between atoms: C_3  and  C_38
REMARK    2  A    between atoms: C_4  and  O_25
REMARK    3  A    between atoms: C_5  and  O_7
REMARK    4  A    between atoms: O_7  and  C_8
REMARK    5  A    between atoms: C_9  and  N_21
REMARK    6  A    between atoms: C_11  and  N_16
REMARK    7  A    between atoms: O_25  and  C_26
REMARK    8  A    between atoms: C_27  and  N_36
REMARK    9  A    between atoms: C_30  and  C_32
REMARK                            x       y       z     vdW  Elec       q    Type
REMARK                         _______ _______ _______ _____ _____    ______ ____
ROOT
ATOM      1  C   UNL     1      44.602  75.095  44.116  0.00  0.00    +0.035 C 
ATOM      2  C   UNL     1      44.695  75.296  42.623  0.00  0.00    +0.155 C 
ATOM      3  C   UNL     1      43.562  74.651  41.885  0.00  0.00    +0.238 C 
ATOM      4  C   UNL     1      43.354  75.546  40.689  0.00  0.00    +0.211 C 
ATOM      5  C   UNL     1      44.337  76.646  40.911  0.00  0.00    +0.267 C 
ATOM      6  O   UNL     1      44.594  76.639  42.291  0.00  0.00    -0.328 OA
ATOM      7  O   UNL     1      42.434  74.661  42.720  0.00  0.00    -0.212 OA
ENDROOT
BRANCH   3   8
ATOM      8  C   UNL     1      43.885  73.253  41.475  0.00  0.00    +0.242 C 
ATOM      9  O   UNL     1      42.948  72.486  41.342  0.00  0.00    -0.285 OA
ENDBRANCH   3   8
BRANCH   5  10
ATOM     10  O   UNL     1      43.947  77.902  40.548  0.00  0.00    -0.326 OA
BRANCH  10  11
ATOM     11  C   UNL     1      45.003  78.711  40.140  0.00  0.00    +0.176 C 
ATOM     12  C   UNL     1      45.644  79.415  41.318  0.00  0.00    +0.168 C 
ATOM     13  C   UNL     1      46.969  79.970  40.800  0.00  0.00    +0.202 C 
ATOM     14  C   UNL     1      46.604  81.094  39.862  0.00  0.00    +0.172 C 
ATOM     15  C   UNL     1      45.660  80.699  38.788  0.00  0.00    +0.209 C 
ATOM     16  C   UNL     1      44.574  79.760  39.164  0.00  0.00    +0.213 C 
ATOM     17  O   UNL     1      44.125  79.156  37.964  0.00  0.00    -0.218 OA
ATOM     18  O   UNL     1      45.035  81.879  38.321  0.00  0.00    -0.218 OA
ATOM     19  O   UNL     1      47.615  78.922  40.156  0.00  0.00    -0.219 OA
BRANCH  14  20
ATOM     20  N   UNL     1      47.799  81.645  39.251  0.00  0.00    -0.230 NA
ATOM     21  C   UNL     1      47.958  82.903  39.047  0.00  0.00    +0.284 C 
ATOM     22  N   UNL     1      49.194  83.336  38.498  0.00  0.00    -0.104 NA
ATOM     23  N   UNL     1      46.962  83.865  39.341  0.00  0.00    -0.104 NA
ENDBRANCH  14  20
BRANCH  12  24
ATOM     24  N   UNL     1      45.841  78.533  42.441  0.00  0.00    -0.230 NA
ATOM     25  C   UNL     1      46.802  78.820  43.282  0.00  0.00    +0.284 C 
ATOM     26  N   UNL     1      47.236  80.153  43.480  0.00  0.00    -0.104 NA
ATOM     27  N   UNL     1      47.377  77.739  43.975  0.00  0.00    -0.104 NA
ENDBRANCH  12  24
ENDBRANCH  10  11
ENDBRANCH   5  10
BRANCH   4  28
ATOM     28  O   UNL     1      42.038  75.997  40.605  0.00  0.00    -0.324 OA
BRANCH  28  29
ATOM     29  C   UNL     1      41.440  75.442  39.476  0.00  0.00    +0.255 C 
ATOM     30  C   UNL     1      39.976  75.177  39.685  0.00  0.00    +0.162 C 
ATOM     31  C   UNL     1      39.316  75.003  38.333  0.00  0.00    +0.205 C 
ATOM     32  C   UNL     1      39.330  76.366  37.671  0.00  0.00    +0.213 C 
ATOM     33  C   UNL     1      40.498  77.163  38.221  0.00  0.00    +0.183 C 
ATOM     34  O   UNL     1      41.601  76.378  38.459  0.00  0.00    -0.326 OA
ATOM     35  O   UNL     1      39.478  76.269  36.291  0.00  0.00    -0.218 OA
ATOM     36  O   UNL     1      39.986  74.123  37.515  0.00  0.00    -0.219 OA
BRANCH  33  37
ATOM     37  C   UNL     1      40.884  78.179  37.161  0.00  0.00    +0.214 C 
ATOM     38  O   UNL     1      41.957  77.616  36.434  0.00  0.00    -0.218 OA
ENDBRANCH  33  37
BRANCH  30  39
ATOM     39  N   UNL     1      39.678  74.107  40.583  0.00  0.00    -0.210 NA
ATOM     40  C   UNL     1      39.843  72.788  40.058  0.00  0.00    +0.108 C 
ENDBRANCH  30  39
ENDBRANCH  28  29
ENDBRANCH   4  28
TORSDOF 9
