REMARK  Name = Streptozocin
REMARK  3 active torsions:
REMARK  status: ('A' for Active; 'I' for Inactive)
REMARK    1  A    between atoms: N_2  and  N_17
REMARK    2  A    between atoms: N_5  and  C_6
REMARK    3  A    between atoms: C_9  and  C_13
REMARK                            x       y       z     vdW  Elec       q    Type
REMARK                         _______ _______ _______ _____ _____    ______ ____
ROOT
ATOM      1  C   UNL     1      43.514  78.538  39.595  0.00  0.00    +0.189 C 
ATOM      2  C   UNL     1      44.316  77.368  40.116  0.00  0.00    +0.210 C 
ATOM      3  C   UNL     1      43.703  76.095  39.628  0.00  0.00    +0.214 C 
ATOM      4  C   UNL     1      42.216  76.101  39.570  0.00  0.00    +0.184 C 
ATOM      5  O   UNL     1      41.652  77.231  39.046  0.00  0.00    -0.324 OA
ATOM      6  C   UNL     1      42.556  78.127  38.505  0.00  0.00    +0.292 C 
ATOM      7  O   UNL     1      43.167  77.682  37.362  0.00  0.00    -0.188 OA
ATOM      8  O   UNL     1      44.118  74.985  40.363  0.00  0.00    -0.218 OA
ATOM      9  O   UNL     1      45.623  77.424  39.585  0.00  0.00    -0.218 OA
ENDROOT
BRANCH   1  14
ATOM     10  C   UNL     1      46.629  82.093  40.943  0.00  0.00    +0.148 C 
ATOM     11  N   UNL     1      45.894  81.440  39.896  0.00  0.00    -0.127 N 
ATOM     12  C   UNL     1      45.122  80.298  40.191  0.00  0.00    +0.345 C 
ATOM     13  O   UNL     1      45.046  79.917  41.396  0.00  0.00    -0.249 OA
ATOM     14  N   UNL     1      44.425  79.556  39.186  0.00  0.00    -0.181 NA
BRANCH  11  15
ATOM     15  N   UNL     1      45.949  81.937  38.604  0.00  0.00    +0.053 NA
ATOM     16  O   UNL     1      46.572  82.966  38.268  0.00  0.00    -0.126 OA
ENDBRANCH  11  15
ENDBRANCH   1  14
BRANCH   4  17
ATOM     17  C   UNL     1      41.566  75.817  40.908  0.00  0.00    +0.214 C 
ATOM     18  O   UNL     1      40.909  74.615  40.956  0.00  0.00    -0.218 OA
ENDBRANCH   4  17
TORSDOF 3
