REMARK  Name = Succinic_acid
REMARK  3 active torsions:
REMARK  status: ('A' for Active; 'I' for Inactive)
REMARK    1  A    between atoms: C_1  and  C_2
REMARK    2  A    between atoms: C_1  and  C_6
REMARK    3  A    between atoms: C_2  and  C_3
REMARK                            x       y       z     vdW  Elec       q    Type
REMARK                         _______ _______ _______ _____ _____    ______ ____
ROOT
ATOM      1  C   UNL     1      45.778  80.578  39.912  0.00  0.00    +0.126 C 
ENDROOT
BRANCH   1   2
ATOM      2  C   UNL     1      45.885  81.838  39.130  0.00  0.00    +0.365 C 
ATOM      3  O   UNL     1      45.077  82.103  38.194  0.00  0.00    -0.246 OA
ATOM      4  O   UNL     1      46.869  82.787  39.379  0.00  0.00    -0.246 OA
ENDBRANCH   1   2
BRANCH   1   5
ATOM      5  C   UNL     1      44.719  79.709  39.261  0.00  0.00    +0.126 C 
BRANCH   5   6
ATOM      6  C   UNL     1      44.512  78.454  40.018  0.00  0.00    +0.365 C 
ATOM      7  O   UNL     1      45.331  78.198  40.939  0.00  0.00    -0.246 OA
ATOM      8  O   UNL     1      43.501  77.556  39.790  0.00  0.00    -0.246 OA
ENDBRANCH   5   6
ENDBRANCH   1   5
TORSDOF 3
