REMARK  Name = Succinylcholine
REMARK  11 active torsions:
REMARK  status: ('A' for Active; 'I' for Inactive)
REMARK    1  A    between atoms: N_2  and  C_5
REMARK    2  A    between atoms: C_5  and  C_6
REMARK    3  A    between atoms: C_6  and  O_7
REMARK    4  A    between atoms: O_7  and  C_8
REMARK    5  A    between atoms: C_8  and  C_10
REMARK    6  A    between atoms: C_10  and  C_11
REMARK    7  A    between atoms: C_11  and  C_12
REMARK    8  A    between atoms: C_12  and  O_14
REMARK    9  A    between atoms: O_14  and  C_15
REMARK   10  A    between atoms: C_15  and  C_16
REMARK   11  A    between atoms: C_16  and  N_17
REMARK                            x       y       z     vdW  Elec       q    Type
REMARK                         _______ _______ _______ _____ _____    ______ ____
ROOT
ATOM      1  C   UNL     1      45.190  79.888  40.237  0.00  0.00    +0.121 C 
ENDROOT
BRANCH   1   2
ATOM      2  C   UNL     1      46.015  81.104  40.237  0.00  0.00    +0.317 C 
ATOM      3  O   UNL     1      45.859  81.946  39.325  0.00  0.00    -0.250 OA
BRANCH   2   4
ATOM      4  O   UNL     1      46.943  81.321  41.214  0.00  0.00    -0.451 OA
BRANCH   4   5
ATOM      5  C   UNL     1      47.906  82.345  41.224  0.00  0.00    +0.186 C 
BRANCH   5   6
ATOM      6  C   UNL     1      48.797  82.187  42.407  0.00  0.00    -0.025 C 
BRANCH   6   8
ATOM      7  C   UNL     1      50.314  83.492  41.087  0.00  0.00    -0.096 C 
ATOM      8  N   UNL     1      49.891  83.145  42.417  0.00  0.00    +0.388 N 
ATOM      9  C   UNL     1      49.378  84.344  43.072  0.00  0.00    -0.096 C 
ATOM     10  C   UNL     1      51.014  82.682  43.187  0.00  0.00    -0.096 C 
ENDBRANCH   6   8
ENDBRANCH   5   6
ENDBRANCH   4   5
ENDBRANCH   2   4
ENDBRANCH   1   2
BRANCH   1  11
ATOM     11  C   UNL     1      44.108  79.939  39.167  0.00  0.00    +0.121 C 
BRANCH  11  12
ATOM     12  C   UNL     1      43.279  78.708  39.207  0.00  0.00    +0.317 C 
ATOM     13  O   UNL     1      43.528  77.847  40.076  0.00  0.00    -0.250 OA
BRANCH  12  14
ATOM     14  O   UNL     1      42.239  78.465  38.324  0.00  0.00    -0.451 OA
BRANCH  14  15
ATOM     15  C   UNL     1      41.422  77.296  38.437  0.00  0.00    +0.186 C 
BRANCH  15  16
ATOM     16  C   UNL     1      40.383  77.393  37.333  0.00  0.00    -0.025 C 
BRANCH  16  17
ATOM     17  N   UNL     1      39.995  76.075  36.865  0.00  0.00    +0.388 N 
ATOM     18  C   UNL     1      39.461  75.257  37.915  0.00  0.00    -0.096 C 
ATOM     19  C   UNL     1      38.970  76.265  35.837  0.00  0.00    -0.096 C 
ATOM     20  C   UNL     1      41.176  75.439  36.314  0.00  0.00    -0.096 C 
ENDBRANCH  16  17
ENDBRANCH  15  16
ENDBRANCH  14  15
ENDBRANCH  12  14
ENDBRANCH  11  12
ENDBRANCH   1  11
TORSDOF 11
