REMARK  Name = Sucralfate
REMARK  29 active torsions:
REMARK  status: ('A' for Active; 'I' for Inactive)
REMARK    1  A    between atoms: C_1  and  C_2
REMARK    2  A    between atoms: C_1  and  O_58
REMARK    3  A    between atoms: C_3  and  O_52
REMARK    4  A    between atoms: C_4  and  O_46
REMARK    5  A    between atoms: C_5  and  O_40
REMARK    6  A    between atoms: C_6  and  O_8
REMARK    7  A    between atoms: O_8  and  C_9
REMARK    8  A    between atoms: C_9  and  C_33
REMARK    9  A    between atoms: C_10  and  O_27
REMARK   10  A    between atoms: C_11  and  O_21
REMARK   11  A    between atoms: C_12  and  C_14
REMARK   12  A    between atoms: C_14  and  O_15
REMARK   13  A    between atoms: O_15  and  S_16
REMARK   14  A    between atoms: S_16  and  O_19
REMARK   15  A    between atoms: O_21  and  S_22
REMARK   16  A    between atoms: S_22  and  O_25
REMARK   17  A    between atoms: O_27  and  S_28
REMARK   18  A    between atoms: S_28  and  O_31
REMARK   19  A    between atoms: C_33  and  O_34
REMARK   20  A    between atoms: O_34  and  S_35
REMARK   21  A    between atoms: S_35  and  O_38
REMARK   22  A    between atoms: O_40  and  S_41
REMARK   23  A    between atoms: S_41  and  O_44
REMARK   24  A    between atoms: O_46  and  S_47
REMARK   25  A    between atoms: S_47  and  O_50
REMARK   26  A    between atoms: O_52  and  S_53
REMARK   27  A    between atoms: S_53  and  O_56
REMARK   28  A    between atoms: O_58  and  S_59
REMARK   29  A    between atoms: S_59  and  O_62
REMARK                            x       y       z     vdW  Elec       q    Type
REMARK                         _______ _______ _______ _____ _____    ______ ____
ROOT
ATOM      1  O   UNL     1      46.101  74.320  42.507  0.00  0.00    -0.303 OA
ENDROOT
BRANCH   1   6
ATOM      2  C   UNL     1      48.853  73.605  41.952  0.00  0.00    +0.182 C 
ATOM      3  C   UNL     1      49.858  74.551  42.609  0.00  0.00    +0.209 C 
ATOM      4  C   UNL     1      49.349  75.945  42.291  0.00  0.00    +0.214 C 
ATOM      5  C   UNL     1      47.902  75.952  42.845  0.00  0.00    +0.235 C 
ATOM      6  C   UNL     1      47.088  75.113  41.973  0.00  0.00    +0.270 C 
ATOM      7  O   UNL     1      47.896  74.255  41.247  0.00  0.00    -0.326 OA
BRANCH   5   8
ATOM      8  O   UNL     1      47.600  77.309  42.893  0.00  0.00    -0.199 OA
BRANCH   8   9
ATOM      9  S   UNL     1      47.661  77.865  44.461  0.00  0.00    +0.180 S 
ATOM     10  O   UNL     1      48.990  78.573  44.632  0.00  0.00    -0.121 OA
ATOM     11  O   UNL     1      47.536  76.749  45.441  0.00  0.00    -0.121 OA
BRANCH   9  12
ATOM     12  O   UNL     1      46.480  79.009  44.774  0.00  0.00    -0.384 OA
ATOM     13 AL   UNL     1      46.158  80.082  43.316  0.00  0.00    +0.435 Al
ENDBRANCH   9  12
ENDBRANCH   8   9
ENDBRANCH   5   8
BRANCH   4  14
ATOM     14  O   UNL     1      49.218  76.009  40.906  0.00  0.00    -0.201 OA
BRANCH  14  15
ATOM     15  S   UNL     1      50.055  77.339  40.285  0.00  0.00    +0.180 S 
ATOM     16  O   UNL     1      49.440  78.620  40.740  0.00  0.00    -0.121 OA
ATOM     17  O   UNL     1      51.482  77.197  40.756  0.00  0.00    -0.121 OA
BRANCH  15  18
ATOM     18  O   UNL     1      50.028  77.258  38.605  0.00  0.00    -0.384 OA
ATOM     19 AL   UNL     1      49.556  75.569  38.056  0.00  0.00    +0.435 Al
ENDBRANCH  15  18
ENDBRANCH  14  15
ENDBRANCH   4  14
BRANCH   3  20
ATOM     20  O   UNL     1      49.823  74.354  43.965  0.00  0.00    -0.202 OA
BRANCH  20  21
ATOM     21  S   UNL     1      51.289  73.894  44.605  0.00  0.00    +0.180 S 
ATOM     22  O   UNL     1      51.014  72.890  45.693  0.00  0.00    -0.121 OA
ATOM     23  O   UNL     1      52.143  73.239  43.546  0.00  0.00    -0.121 OA
BRANCH  21  24
ATOM     24  O   UNL     1      52.098  75.195  45.306  0.00  0.00    -0.384 OA
ATOM     25 AL   UNL     1      53.590  75.581  44.302  0.00  0.00    +0.435 Al
ENDBRANCH  21  24
ENDBRANCH  20  21
ENDBRANCH   3  20
BRANCH   2  26
ATOM     26  C   UNL     1      48.356  72.681  43.002  0.00  0.00    +0.209 C 
BRANCH  26  27
ATOM     27  O   UNL     1      47.553  71.637  42.545  0.00  0.00    -0.202 OA
BRANCH  27  28
ATOM     28  S   UNL     1      47.482  70.543  43.849  0.00  0.00    +0.180 S 
ATOM     29  O   UNL     1      47.269  71.270  45.144  0.00  0.00    -0.121 OA
ATOM     30  O   UNL     1      48.855  69.884  43.864  0.00  0.00    -0.121 OA
BRANCH  28  31
ATOM     31  O   UNL     1      46.305  69.395  43.649  0.00  0.00    -0.384 OA
ATOM     32 AL   UNL     1      45.961  68.529  45.226  0.00  0.00    +0.435 Al
ENDBRANCH  28  31
ENDBRANCH  27  28
ENDBRANCH  26  27
ENDBRANCH   2  26
ENDBRANCH   1   6
BRANCH   1  33
ATOM     33  C   UNL     1      44.855  74.464  41.962  0.00  0.00    +0.250 C 
ATOM     34  C   UNL     1      43.865  73.620  42.727  0.00  0.00    +0.233 C 
ATOM     35  C   UNL     1      42.737  74.614  43.076  0.00  0.00    +0.211 C 
ATOM     36  C   UNL     1      43.586  75.852  43.226  0.00  0.00    +0.182 C 
ATOM     37  O   UNL     1      44.427  75.768  42.140  0.00  0.00    -0.327 OA
BRANCH  33  38
ATOM     38  C   UNL     1      44.784  74.032  40.514  0.00  0.00    +0.235 C 
BRANCH  38  39
ATOM     39  O   UNL     1      43.499  74.197  40.003  0.00  0.00    -0.199 OA
BRANCH  39  40
ATOM     40  S   UNL     1      43.536  73.756  38.364  0.00  0.00    +0.180 S 
ATOM     41  O   UNL     1      44.917  74.067  37.808  0.00  0.00    -0.121 OA
ATOM     42  O   UNL     1      43.266  72.287  38.249  0.00  0.00    -0.121 OA
BRANCH  40  43
ATOM     43  O   UNL     1      42.361  74.595  37.514  0.00  0.00    -0.384 OA
ATOM     44 AL   UNL     1      41.115  73.416  36.869  0.00  0.00    +0.435 Al
ENDBRANCH  40  43
ENDBRANCH  39  40
ENDBRANCH  38  39
ENDBRANCH  33  38
BRANCH  34  45
ATOM     45  O   UNL     1      43.241  72.688  41.894  0.00  0.00    -0.199 OA
BRANCH  45  46
ATOM     46  S   UNL     1      43.236  71.147  42.467  0.00  0.00    +0.180 S 
ATOM     47  O   UNL     1      44.182  70.334  41.607  0.00  0.00    -0.121 OA
ATOM     48  O   UNL     1      43.667  71.011  43.875  0.00  0.00    -0.121 OA
BRANCH  46  49
ATOM     49  O   UNL     1      41.721  70.400  42.285  0.00  0.00    -0.384 OA
ATOM     50 AL   UNL     1      41.487  69.852  40.541  0.00  0.00    +0.435 Al
ENDBRANCH  46  49
ENDBRANCH  45  46
ENDBRANCH  34  45
BRANCH  35  51
ATOM     51  O   UNL     1      41.900  74.775  42.003  0.00  0.00    -0.202 OA
BRANCH  51  52
ATOM     52  S   UNL     1      40.297  74.454  42.361  0.00  0.00    +0.180 S 
ATOM     53  O   UNL     1      40.170  73.668  43.645  0.00  0.00    -0.121 OA
ATOM     54  O   UNL     1      39.466  75.704  42.406  0.00  0.00    -0.121 OA
BRANCH  52  55
ATOM     55  O   UNL     1      39.692  73.481  41.132  0.00  0.00    -0.384 OA
ATOM     56 AL   UNL     1      38.556  74.430  40.045  0.00  0.00    +0.435 Al
ENDBRANCH  52  55
ENDBRANCH  51  52
ENDBRANCH  35  51
BRANCH  36  57
ATOM     57  C   UNL     1      44.296  75.852  44.563  0.00  0.00    +0.209 C 
BRANCH  57  58
ATOM     58  O   UNL     1      43.321  75.932  45.584  0.00  0.00    -0.202 OA
BRANCH  58  59
ATOM     59  S   UNL     1      44.031  75.936  47.093  0.00  0.00    +0.180 S 
ATOM     60  O   UNL     1      45.243  75.019  47.130  0.00  0.00    -0.121 OA
ATOM     61  O   UNL     1      43.027  75.532  48.142  0.00  0.00    -0.121 OA
BRANCH  59  62
ATOM     62  O   UNL     1      44.594  77.464  47.508  0.00  0.00    -0.384 OA
ATOM     63 AL   UNL     1      45.106  77.398  49.273  0.00  0.00    +0.435 Al
ENDBRANCH  59  62
ENDBRANCH  58  59
ENDBRANCH  57  58
ENDBRANCH  36  57
ENDBRANCH   1  33
TORSDOF 29
REMARK  Name = Sucralfate
REMARK  29 active torsions:
REMARK  status: ('A' for Active; 'I' for Inactive)
REMARK    1  A    between atoms: C_1  and  C_2
REMARK    2  A    between atoms: C_1  and  O_58
REMARK    3  A    between atoms: C_3  and  O_52
REMARK    4  A    between atoms: C_4  and  O_46
REMARK    5  A    between atoms: C_5  and  O_40
REMARK    6  A    between atoms: C_6  and  O_8
REMARK    7  A    between atoms: O_8  and  C_9
REMARK    8  A    between atoms: C_9  and  C_33
REMARK    9  A    between atoms: C_10  and  O_27
REMARK   10  A    between atoms: C_11  and  O_21
REMARK   11  A    between atoms: C_12  and  C_14
REMARK   12  A    between atoms: C_14  and  O_15
REMARK   13  A    between atoms: O_15  and  S_16
REMARK   14  A    between atoms: S_16  and  O_19
REMARK   15  A    between atoms: O_21  and  S_22
REMARK   16  A    between atoms: S_22  and  O_25
REMARK   17  A    between atoms: O_27  and  S_28
REMARK   18  A    between atoms: S_28  and  O_31
REMARK   19  A    between atoms: C_33  and  O_34
REMARK   20  A    between atoms: O_34  and  S_35
REMARK   21  A    between atoms: S_35  and  O_38
REMARK   22  A    between atoms: O_40  and  S_41
REMARK   23  A    between atoms: S_41  and  O_44
REMARK   24  A    between atoms: O_46  and  S_47
REMARK   25  A    between atoms: S_47  and  O_50
REMARK   26  A    between atoms: O_52  and  S_53
REMARK   27  A    between atoms: S_53  and  O_56
REMARK   28  A    between atoms: O_58  and  S_59
REMARK   29  A    between atoms: S_59  and  O_62
REMARK                            x       y       z     vdW  Elec       q    Type
REMARK                         _______ _______ _______ _____ _____    ______ ____
ROOT
ATOM      1  O   HOH     1      46.069  74.104  42.686  0.00  0.00    +0.000 OA
ENDROOT
TORSDOF 0
REMARK  Name = Sucralfate
REMARK  29 active torsions:
REMARK  status: ('A' for Active; 'I' for Inactive)
REMARK    1  A    between atoms: C_1  and  C_2
REMARK    2  A    between atoms: C_1  and  O_58
REMARK    3  A    between atoms: C_3  and  O_52
REMARK    4  A    between atoms: C_4  and  O_46
REMARK    5  A    between atoms: C_5  and  O_40
REMARK    6  A    between atoms: C_6  and  O_8
REMARK    7  A    between atoms: O_8  and  C_9
REMARK    8  A    between atoms: C_9  and  C_33
REMARK    9  A    between atoms: C_10  and  O_27
REMARK   10  A    between atoms: C_11  and  O_21
REMARK   11  A    between atoms: C_12  and  C_14
REMARK   12  A    between atoms: C_14  and  O_15
REMARK   13  A    between atoms: O_15  and  S_16
REMARK   14  A    between atoms: S_16  and  O_19
REMARK   15  A    between atoms: O_21  and  S_22
REMARK   16  A    between atoms: S_22  and  O_25
REMARK   17  A    between atoms: O_27  and  S_28
REMARK   18  A    between atoms: S_28  and  O_31
REMARK   19  A    between atoms: C_33  and  O_34
REMARK   20  A    between atoms: O_34  and  S_35
REMARK   21  A    between atoms: S_35  and  O_38
REMARK   22  A    between atoms: O_40  and  S_41
REMARK   23  A    between atoms: S_41  and  O_44
REMARK   24  A    between atoms: O_46  and  S_47
REMARK   25  A    between atoms: S_47  and  O_50
REMARK   26  A    between atoms: O_52  and  S_53
REMARK   27  A    between atoms: S_53  and  O_56
REMARK   28  A    between atoms: O_58  and  S_59
REMARK   29  A    between atoms: S_59  and  O_62
REMARK                            x       y       z     vdW  Elec       q    Type
REMARK                         _______ _______ _______ _____ _____    ______ ____
ROOT
ATOM      1  O   HOH     1      46.069  74.110  42.687  0.00  0.00    +0.000 OA
ENDROOT
TORSDOF 0
REMARK  Name = Sucralfate
REMARK  29 active torsions:
REMARK  status: ('A' for Active; 'I' for Inactive)
REMARK    1  A    between atoms: C_1  and  C_2
REMARK    2  A    between atoms: C_1  and  O_58
REMARK    3  A    between atoms: C_3  and  O_52
REMARK    4  A    between atoms: C_4  and  O_46
REMARK    5  A    between atoms: C_5  and  O_40
REMARK    6  A    between atoms: C_6  and  O_8
REMARK    7  A    between atoms: O_8  and  C_9
REMARK    8  A    between atoms: C_9  and  C_33
REMARK    9  A    between atoms: C_10  and  O_27
REMARK   10  A    between atoms: C_11  and  O_21
REMARK   11  A    between atoms: C_12  and  C_14
REMARK   12  A    between atoms: C_14  and  O_15
REMARK   13  A    between atoms: O_15  and  S_16
REMARK   14  A    between atoms: S_16  and  O_19
REMARK   15  A    between atoms: O_21  and  S_22
REMARK   16  A    between atoms: S_22  and  O_25
REMARK   17  A    between atoms: O_27  and  S_28
REMARK   18  A    between atoms: S_28  and  O_31
REMARK   19  A    between atoms: C_33  and  O_34
REMARK   20  A    between atoms: O_34  and  S_35
REMARK   21  A    between atoms: S_35  and  O_38
REMARK   22  A    between atoms: O_40  and  S_41
REMARK   23  A    between atoms: S_41  and  O_44
REMARK   24  A    between atoms: O_46  and  S_47
REMARK   25  A    between atoms: S_47  and  O_50
REMARK   26  A    between atoms: O_52  and  S_53
REMARK   27  A    between atoms: S_53  and  O_56
REMARK   28  A    between atoms: O_58  and  S_59
REMARK   29  A    between atoms: S_59  and  O_62
REMARK                            x       y       z     vdW  Elec       q    Type
REMARK                         _______ _______ _______ _____ _____    ______ ____
ROOT
ATOM      1  O   HOH     1      46.068  74.089  42.685  0.00  0.00    +0.000 OA
ENDROOT
TORSDOF 0
REMARK  Name = Sucralfate
REMARK  29 active torsions:
REMARK  status: ('A' for Active; 'I' for Inactive)
REMARK    1  A    between atoms: C_1  and  C_2
REMARK    2  A    between atoms: C_1  and  O_58
REMARK    3  A    between atoms: C_3  and  O_52
REMARK    4  A    between atoms: C_4  and  O_46
REMARK    5  A    between atoms: C_5  and  O_40
REMARK    6  A    between atoms: C_6  and  O_8
REMARK    7  A    between atoms: O_8  and  C_9
REMARK    8  A    between atoms: C_9  and  C_33
REMARK    9  A    between atoms: C_10  and  O_27
REMARK   10  A    between atoms: C_11  and  O_21
REMARK   11  A    between atoms: C_12  and  C_14
REMARK   12  A    between atoms: C_14  and  O_15
REMARK   13  A    between atoms: O_15  and  S_16
REMARK   14  A    between atoms: S_16  and  O_19
REMARK   15  A    between atoms: O_21  and  S_22
REMARK   16  A    between atoms: S_22  and  O_25
REMARK   17  A    between atoms: O_27  and  S_28
REMARK   18  A    between atoms: S_28  and  O_31
REMARK   19  A    between atoms: C_33  and  O_34
REMARK   20  A    between atoms: O_34  and  S_35
REMARK   21  A    between atoms: S_35  and  O_38
REMARK   22  A    between atoms: O_40  and  S_41
REMARK   23  A    between atoms: S_41  and  O_44
REMARK   24  A    between atoms: O_46  and  S_47
REMARK   25  A    between atoms: S_47  and  O_50
REMARK   26  A    between atoms: O_52  and  S_53
REMARK   27  A    between atoms: S_53  and  O_56
REMARK   28  A    between atoms: O_58  and  S_59
REMARK   29  A    between atoms: S_59  and  O_62
REMARK                            x       y       z     vdW  Elec       q    Type
REMARK                         _______ _______ _______ _____ _____    ______ ____
ROOT
ATOM      1  O   HOH     1      46.072  74.114  42.687  0.00  0.00    +0.000 OA
ENDROOT
TORSDOF 0
REMARK  Name = Sucralfate
REMARK  29 active torsions:
REMARK  status: ('A' for Active; 'I' for Inactive)
REMARK    1  A    between atoms: C_1  and  C_2
REMARK    2  A    between atoms: C_1  and  O_58
REMARK    3  A    between atoms: C_3  and  O_52
REMARK    4  A    between atoms: C_4  and  O_46
REMARK    5  A    between atoms: C_5  and  O_40
REMARK    6  A    between atoms: C_6  and  O_8
REMARK    7  A    between atoms: O_8  and  C_9
REMARK    8  A    between atoms: C_9  and  C_33
REMARK    9  A    between atoms: C_10  and  O_27
REMARK   10  A    between atoms: C_11  and  O_21
REMARK   11  A    between atoms: C_12  and  C_14
REMARK   12  A    between atoms: C_14  and  O_15
REMARK   13  A    between atoms: O_15  and  S_16
REMARK   14  A    between atoms: S_16  and  O_19
REMARK   15  A    between atoms: O_21  and  S_22
REMARK   16  A    between atoms: S_22  and  O_25
REMARK   17  A    between atoms: O_27  and  S_28
REMARK   18  A    between atoms: S_28  and  O_31
REMARK   19  A    between atoms: C_33  and  O_34
REMARK   20  A    between atoms: O_34  and  S_35
REMARK   21  A    between atoms: S_35  and  O_38
REMARK   22  A    between atoms: O_40  and  S_41
REMARK   23  A    between atoms: S_41  and  O_44
REMARK   24  A    between atoms: O_46  and  S_47
REMARK   25  A    between atoms: S_47  and  O_50
REMARK   26  A    between atoms: O_52  and  S_53
REMARK   27  A    between atoms: S_53  and  O_56
REMARK   28  A    between atoms: O_58  and  S_59
REMARK   29  A    between atoms: S_59  and  O_62
REMARK                            x       y       z     vdW  Elec       q    Type
REMARK                         _______ _______ _______ _____ _____    ______ ____
ROOT
ATOM      1  O   HOH     1      46.068  74.079  42.684  0.00  0.00    +0.000 OA
ENDROOT
TORSDOF 0
REMARK  Name = Sucralfate
REMARK  29 active torsions:
REMARK  status: ('A' for Active; 'I' for Inactive)
REMARK    1  A    between atoms: C_1  and  C_2
REMARK    2  A    between atoms: C_1  and  O_58
REMARK    3  A    between atoms: C_3  and  O_52
REMARK    4  A    between atoms: C_4  and  O_46
REMARK    5  A    between atoms: C_5  and  O_40
REMARK    6  A    between atoms: C_6  and  O_8
REMARK    7  A    between atoms: O_8  and  C_9
REMARK    8  A    between atoms: C_9  and  C_33
REMARK    9  A    between atoms: C_10  and  O_27
REMARK   10  A    between atoms: C_11  and  O_21
REMARK   11  A    between atoms: C_12  and  C_14
REMARK   12  A    between atoms: C_14  and  O_15
REMARK   13  A    between atoms: O_15  and  S_16
REMARK   14  A    between atoms: S_16  and  O_19
REMARK   15  A    between atoms: O_21  and  S_22
REMARK   16  A    between atoms: S_22  and  O_25
REMARK   17  A    between atoms: O_27  and  S_28
REMARK   18  A    between atoms: S_28  and  O_31
REMARK   19  A    between atoms: C_33  and  O_34
REMARK   20  A    between atoms: O_34  and  S_35
REMARK   21  A    between atoms: S_35  and  O_38
REMARK   22  A    between atoms: O_40  and  S_41
REMARK   23  A    between atoms: S_41  and  O_44
REMARK   24  A    between atoms: O_46  and  S_47
REMARK   25  A    between atoms: S_47  and  O_50
REMARK   26  A    between atoms: O_52  and  S_53
REMARK   27  A    between atoms: S_53  and  O_56
REMARK   28  A    between atoms: O_58  and  S_59
REMARK   29  A    between atoms: S_59  and  O_62
REMARK                            x       y       z     vdW  Elec       q    Type
REMARK                         _______ _______ _______ _____ _____    ______ ____
ROOT
ATOM      1  O   HOH     1      46.068  74.102  42.686  0.00  0.00    +0.000 OA
ENDROOT
TORSDOF 0
REMARK  Name = Sucralfate
REMARK  29 active torsions:
REMARK  status: ('A' for Active; 'I' for Inactive)
REMARK    1  A    between atoms: C_1  and  C_2
REMARK    2  A    between atoms: C_1  and  O_58
REMARK    3  A    between atoms: C_3  and  O_52
REMARK    4  A    between atoms: C_4  and  O_46
REMARK    5  A    between atoms: C_5  and  O_40
REMARK    6  A    between atoms: C_6  and  O_8
REMARK    7  A    between atoms: O_8  and  C_9
REMARK    8  A    between atoms: C_9  and  C_33
REMARK    9  A    between atoms: C_10  and  O_27
REMARK   10  A    between atoms: C_11  and  O_21
REMARK   11  A    between atoms: C_12  and  C_14
REMARK   12  A    between atoms: C_14  and  O_15
REMARK   13  A    between atoms: O_15  and  S_16
REMARK   14  A    between atoms: S_16  and  O_19
REMARK   15  A    between atoms: O_21  and  S_22
REMARK   16  A    between atoms: S_22  and  O_25
REMARK   17  A    between atoms: O_27  and  S_28
REMARK   18  A    between atoms: S_28  and  O_31
REMARK   19  A    between atoms: C_33  and  O_34
REMARK   20  A    between atoms: O_34  and  S_35
REMARK   21  A    between atoms: S_35  and  O_38
REMARK   22  A    between atoms: O_40  and  S_41
REMARK   23  A    between atoms: S_41  and  O_44
REMARK   24  A    between atoms: O_46  and  S_47
REMARK   25  A    between atoms: S_47  and  O_50
REMARK   26  A    between atoms: O_52  and  S_53
REMARK   27  A    between atoms: S_53  and  O_56
REMARK   28  A    between atoms: O_58  and  S_59
REMARK   29  A    between atoms: S_59  and  O_62
REMARK                            x       y       z     vdW  Elec       q    Type
REMARK                         _______ _______ _______ _____ _____    ______ ____
ROOT
ATOM      1  O   HOH     1      46.068  74.081  42.684  0.00  0.00    +0.000 OA
ENDROOT
TORSDOF 0
REMARK  Name = Sucralfate
REMARK  29 active torsions:
REMARK  status: ('A' for Active; 'I' for Inactive)
REMARK    1  A    between atoms: C_1  and  C_2
REMARK    2  A    between atoms: C_1  and  O_58
REMARK    3  A    between atoms: C_3  and  O_52
REMARK    4  A    between atoms: C_4  and  O_46
REMARK    5  A    between atoms: C_5  and  O_40
REMARK    6  A    between atoms: C_6  and  O_8
REMARK    7  A    between atoms: O_8  and  C_9
REMARK    8  A    between atoms: C_9  and  C_33
REMARK    9  A    between atoms: C_10  and  O_27
REMARK   10  A    between atoms: C_11  and  O_21
REMARK   11  A    between atoms: C_12  and  C_14
REMARK   12  A    between atoms: C_14  and  O_15
REMARK   13  A    between atoms: O_15  and  S_16
REMARK   14  A    between atoms: S_16  and  O_19
REMARK   15  A    between atoms: O_21  and  S_22
REMARK   16  A    between atoms: S_22  and  O_25
REMARK   17  A    between atoms: O_27  and  S_28
REMARK   18  A    between atoms: S_28  and  O_31
REMARK   19  A    between atoms: C_33  and  O_34
REMARK   20  A    between atoms: O_34  and  S_35
REMARK   21  A    between atoms: S_35  and  O_38
REMARK   22  A    between atoms: O_40  and  S_41
REMARK   23  A    between atoms: S_41  and  O_44
REMARK   24  A    between atoms: O_46  and  S_47
REMARK   25  A    between atoms: S_47  and  O_50
REMARK   26  A    between atoms: O_52  and  S_53
REMARK   27  A    between atoms: S_53  and  O_56
REMARK   28  A    between atoms: O_58  and  S_59
REMARK   29  A    between atoms: S_59  and  O_62
REMARK                            x       y       z     vdW  Elec       q    Type
REMARK                         _______ _______ _______ _____ _____    ______ ____
ROOT
ATOM      1  O   HOH     1      46.067  74.096  42.686  0.00  0.00    +0.000 OA
ENDROOT
TORSDOF 0
REMARK  Name = Sucralfate
REMARK  29 active torsions:
REMARK  status: ('A' for Active; 'I' for Inactive)
REMARK    1  A    between atoms: C_1  and  C_2
REMARK    2  A    between atoms: C_1  and  O_58
REMARK    3  A    between atoms: C_3  and  O_52
REMARK    4  A    between atoms: C_4  and  O_46
REMARK    5  A    between atoms: C_5  and  O_40
REMARK    6  A    between atoms: C_6  and  O_8
REMARK    7  A    between atoms: O_8  and  C_9
REMARK    8  A    between atoms: C_9  and  C_33
REMARK    9  A    between atoms: C_10  and  O_27
REMARK   10  A    between atoms: C_11  and  O_21
REMARK   11  A    between atoms: C_12  and  C_14
REMARK   12  A    between atoms: C_14  and  O_15
REMARK   13  A    between atoms: O_15  and  S_16
REMARK   14  A    between atoms: S_16  and  O_19
REMARK   15  A    between atoms: O_21  and  S_22
REMARK   16  A    between atoms: S_22  and  O_25
REMARK   17  A    between atoms: O_27  and  S_28
REMARK   18  A    between atoms: S_28  and  O_31
REMARK   19  A    between atoms: C_33  and  O_34
REMARK   20  A    between atoms: O_34  and  S_35
REMARK   21  A    between atoms: S_35  and  O_38
REMARK   22  A    between atoms: O_40  and  S_41
REMARK   23  A    between atoms: S_41  and  O_44
REMARK   24  A    between atoms: O_46  and  S_47
REMARK   25  A    between atoms: S_47  and  O_50
REMARK   26  A    between atoms: O_52  and  S_53
REMARK   27  A    between atoms: S_53  and  O_56
REMARK   28  A    between atoms: O_58  and  S_59
REMARK   29  A    between atoms: S_59  and  O_62
REMARK                            x       y       z     vdW  Elec       q    Type
REMARK                         _______ _______ _______ _____ _____    ______ ____
ROOT
ATOM      1  O   HOH     1      46.069  74.085  42.684  0.00  0.00    +0.000 OA
ENDROOT
TORSDOF 0
REMARK  Name = Sucralfate
REMARK  29 active torsions:
REMARK  status: ('A' for Active; 'I' for Inactive)
REMARK    1  A    between atoms: C_1  and  C_2
REMARK    2  A    between atoms: C_1  and  O_58
REMARK    3  A    between atoms: C_3  and  O_52
REMARK    4  A    between atoms: C_4  and  O_46
REMARK    5  A    between atoms: C_5  and  O_40
REMARK    6  A    between atoms: C_6  and  O_8
REMARK    7  A    between atoms: O_8  and  C_9
REMARK    8  A    between atoms: C_9  and  C_33
REMARK    9  A    between atoms: C_10  and  O_27
REMARK   10  A    between atoms: C_11  and  O_21
REMARK   11  A    between atoms: C_12  and  C_14
REMARK   12  A    between atoms: C_14  and  O_15
REMARK   13  A    between atoms: O_15  and  S_16
REMARK   14  A    between atoms: S_16  and  O_19
REMARK   15  A    between atoms: O_21  and  S_22
REMARK   16  A    between atoms: S_22  and  O_25
REMARK   17  A    between atoms: O_27  and  S_28
REMARK   18  A    between atoms: S_28  and  O_31
REMARK   19  A    between atoms: C_33  and  O_34
REMARK   20  A    between atoms: O_34  and  S_35
REMARK   21  A    between atoms: S_35  and  O_38
REMARK   22  A    between atoms: O_40  and  S_41
REMARK   23  A    between atoms: S_41  and  O_44
REMARK   24  A    between atoms: O_46  and  S_47
REMARK   25  A    between atoms: S_47  and  O_50
REMARK   26  A    between atoms: O_52  and  S_53
REMARK   27  A    between atoms: S_53  and  O_56
REMARK   28  A    between atoms: O_58  and  S_59
REMARK   29  A    between atoms: S_59  and  O_62
REMARK                            x       y       z     vdW  Elec       q    Type
REMARK                         _______ _______ _______ _____ _____    ______ ____
ROOT
ATOM      1  O   HOH     1      46.071  74.105  42.686  0.00  0.00    +0.000 OA
ENDROOT
TORSDOF 0
REMARK  Name = Sucralfate
REMARK  29 active torsions:
REMARK  status: ('A' for Active; 'I' for Inactive)
REMARK    1  A    between atoms: C_1  and  C_2
REMARK    2  A    between atoms: C_1  and  O_58
REMARK    3  A    between atoms: C_3  and  O_52
REMARK    4  A    between atoms: C_4  and  O_46
REMARK    5  A    between atoms: C_5  and  O_40
REMARK    6  A    between atoms: C_6  and  O_8
REMARK    7  A    between atoms: O_8  and  C_9
REMARK    8  A    between atoms: C_9  and  C_33
REMARK    9  A    between atoms: C_10  and  O_27
REMARK   10  A    between atoms: C_11  and  O_21
REMARK   11  A    between atoms: C_12  and  C_14
REMARK   12  A    between atoms: C_14  and  O_15
REMARK   13  A    between atoms: O_15  and  S_16
REMARK   14  A    between atoms: S_16  and  O_19
REMARK   15  A    between atoms: O_21  and  S_22
REMARK   16  A    between atoms: S_22  and  O_25
REMARK   17  A    between atoms: O_27  and  S_28
REMARK   18  A    between atoms: S_28  and  O_31
REMARK   19  A    between atoms: C_33  and  O_34
REMARK   20  A    between atoms: O_34  and  S_35
REMARK   21  A    between atoms: S_35  and  O_38
REMARK   22  A    between atoms: O_40  and  S_41
REMARK   23  A    between atoms: S_41  and  O_44
REMARK   24  A    between atoms: O_46  and  S_47
REMARK   25  A    between atoms: S_47  and  O_50
REMARK   26  A    between atoms: O_52  and  S_53
REMARK   27  A    between atoms: S_53  and  O_56
REMARK   28  A    between atoms: O_58  and  S_59
REMARK   29  A    between atoms: S_59  and  O_62
REMARK                            x       y       z     vdW  Elec       q    Type
REMARK                         _______ _______ _______ _____ _____    ______ ____
ROOT
ATOM      1  O   HOH     1      46.070  74.116  42.687  0.00  0.00    +0.000 OA
ENDROOT
TORSDOF 0
REMARK  Name = Sucralfate
REMARK  29 active torsions:
REMARK  status: ('A' for Active; 'I' for Inactive)
REMARK    1  A    between atoms: C_1  and  C_2
REMARK    2  A    between atoms: C_1  and  O_58
REMARK    3  A    between atoms: C_3  and  O_52
REMARK    4  A    between atoms: C_4  and  O_46
REMARK    5  A    between atoms: C_5  and  O_40
REMARK    6  A    between atoms: C_6  and  O_8
REMARK    7  A    between atoms: O_8  and  C_9
REMARK    8  A    between atoms: C_9  and  C_33
REMARK    9  A    between atoms: C_10  and  O_27
REMARK   10  A    between atoms: C_11  and  O_21
REMARK   11  A    between atoms: C_12  and  C_14
REMARK   12  A    between atoms: C_14  and  O_15
REMARK   13  A    between atoms: O_15  and  S_16
REMARK   14  A    between atoms: S_16  and  O_19
REMARK   15  A    between atoms: O_21  and  S_22
REMARK   16  A    between atoms: S_22  and  O_25
REMARK   17  A    between atoms: O_27  and  S_28
REMARK   18  A    between atoms: S_28  and  O_31
REMARK   19  A    between atoms: C_33  and  O_34
REMARK   20  A    between atoms: O_34  and  S_35
REMARK   21  A    between atoms: S_35  and  O_38
REMARK   22  A    between atoms: O_40  and  S_41
REMARK   23  A    between atoms: S_41  and  O_44
REMARK   24  A    between atoms: O_46  and  S_47
REMARK   25  A    between atoms: S_47  and  O_50
REMARK   26  A    between atoms: O_52  and  S_53
REMARK   27  A    between atoms: S_53  and  O_56
REMARK   28  A    between atoms: O_58  and  S_59
REMARK   29  A    between atoms: S_59  and  O_62
REMARK                            x       y       z     vdW  Elec       q    Type
REMARK                         _______ _______ _______ _____ _____    ______ ____
ROOT
ATOM      1  O   HOH     1      46.069  74.077  42.684  0.00  0.00    +0.000 OA
ENDROOT
TORSDOF 0
REMARK  Name = Sucralfate
REMARK  29 active torsions:
REMARK  status: ('A' for Active; 'I' for Inactive)
REMARK    1  A    between atoms: C_1  and  C_2
REMARK    2  A    between atoms: C_1  and  O_58
REMARK    3  A    between atoms: C_3  and  O_52
REMARK    4  A    between atoms: C_4  and  O_46
REMARK    5  A    between atoms: C_5  and  O_40
REMARK    6  A    between atoms: C_6  and  O_8
REMARK    7  A    between atoms: O_8  and  C_9
REMARK    8  A    between atoms: C_9  and  C_33
REMARK    9  A    between atoms: C_10  and  O_27
REMARK   10  A    between atoms: C_11  and  O_21
REMARK   11  A    between atoms: C_12  and  C_14
REMARK   12  A    between atoms: C_14  and  O_15
REMARK   13  A    between atoms: O_15  and  S_16
REMARK   14  A    between atoms: S_16  and  O_19
REMARK   15  A    between atoms: O_21  and  S_22
REMARK   16  A    between atoms: S_22  and  O_25
REMARK   17  A    between atoms: O_27  and  S_28
REMARK   18  A    between atoms: S_28  and  O_31
REMARK   19  A    between atoms: C_33  and  O_34
REMARK   20  A    between atoms: O_34  and  S_35
REMARK   21  A    between atoms: S_35  and  O_38
REMARK   22  A    between atoms: O_40  and  S_41
REMARK   23  A    between atoms: S_41  and  O_44
REMARK   24  A    between atoms: O_46  and  S_47
REMARK   25  A    between atoms: S_47  and  O_50
REMARK   26  A    between atoms: O_52  and  S_53
REMARK   27  A    between atoms: S_53  and  O_56
REMARK   28  A    between atoms: O_58  and  S_59
REMARK   29  A    between atoms: S_59  and  O_62
REMARK                            x       y       z     vdW  Elec       q    Type
REMARK                         _______ _______ _______ _____ _____    ______ ____
ROOT
ATOM      1  O   HOH     1      46.066  74.107  42.687  0.00  0.00    +0.000 OA
ENDROOT
TORSDOF 0
REMARK  Name = Sucralfate
REMARK  29 active torsions:
REMARK  status: ('A' for Active; 'I' for Inactive)
REMARK    1  A    between atoms: C_1  and  C_2
REMARK    2  A    between atoms: C_1  and  O_58
REMARK    3  A    between atoms: C_3  and  O_52
REMARK    4  A    between atoms: C_4  and  O_46
REMARK    5  A    between atoms: C_5  and  O_40
REMARK    6  A    between atoms: C_6  and  O_8
REMARK    7  A    between atoms: O_8  and  C_9
REMARK    8  A    between atoms: C_9  and  C_33
REMARK    9  A    between atoms: C_10  and  O_27
REMARK   10  A    between atoms: C_11  and  O_21
REMARK   11  A    between atoms: C_12  and  C_14
REMARK   12  A    between atoms: C_14  and  O_15
REMARK   13  A    between atoms: O_15  and  S_16
REMARK   14  A    between atoms: S_16  and  O_19
REMARK   15  A    between atoms: O_21  and  S_22
REMARK   16  A    between atoms: S_22  and  O_25
REMARK   17  A    between atoms: O_27  and  S_28
REMARK   18  A    between atoms: S_28  and  O_31
REMARK   19  A    between atoms: C_33  and  O_34
REMARK   20  A    between atoms: O_34  and  S_35
REMARK   21  A    between atoms: S_35  and  O_38
REMARK   22  A    between atoms: O_40  and  S_41
REMARK   23  A    between atoms: S_41  and  O_44
REMARK   24  A    between atoms: O_46  and  S_47
REMARK   25  A    between atoms: S_47  and  O_50
REMARK   26  A    between atoms: O_52  and  S_53
REMARK   27  A    between atoms: S_53  and  O_56
REMARK   28  A    between atoms: O_58  and  S_59
REMARK   29  A    between atoms: S_59  and  O_62
REMARK                            x       y       z     vdW  Elec       q    Type
REMARK                         _______ _______ _______ _____ _____    ______ ____
ROOT
ATOM      1  O   HOH     1      46.071  74.111  42.687  0.00  0.00    +0.000 OA
ENDROOT
TORSDOF 0
REMARK  Name = Sucralfate
REMARK  29 active torsions:
REMARK  status: ('A' for Active; 'I' for Inactive)
REMARK    1  A    between atoms: C_1  and  C_2
REMARK    2  A    between atoms: C_1  and  O_58
REMARK    3  A    between atoms: C_3  and  O_52
REMARK    4  A    between atoms: C_4  and  O_46
REMARK    5  A    between atoms: C_5  and  O_40
REMARK    6  A    between atoms: C_6  and  O_8
REMARK    7  A    between atoms: O_8  and  C_9
REMARK    8  A    between atoms: C_9  and  C_33
REMARK    9  A    between atoms: C_10  and  O_27
REMARK   10  A    between atoms: C_11  and  O_21
REMARK   11  A    between atoms: C_12  and  C_14
REMARK   12  A    between atoms: C_14  and  O_15
REMARK   13  A    between atoms: O_15  and  S_16
REMARK   14  A    between atoms: S_16  and  O_19
REMARK   15  A    between atoms: O_21  and  S_22
REMARK   16  A    between atoms: S_22  and  O_25
REMARK   17  A    between atoms: O_27  and  S_28
REMARK   18  A    between atoms: S_28  and  O_31
REMARK   19  A    between atoms: C_33  and  O_34
REMARK   20  A    between atoms: O_34  and  S_35
REMARK   21  A    between atoms: S_35  and  O_38
REMARK   22  A    between atoms: O_40  and  S_41
REMARK   23  A    between atoms: S_41  and  O_44
REMARK   24  A    between atoms: O_46  and  S_47
REMARK   25  A    between atoms: S_47  and  O_50
REMARK   26  A    between atoms: O_52  and  S_53
REMARK   27  A    between atoms: S_53  and  O_56
REMARK   28  A    between atoms: O_58  and  S_59
REMARK   29  A    between atoms: S_59  and  O_62
REMARK                            x       y       z     vdW  Elec       q    Type
REMARK                         _______ _______ _______ _____ _____    ______ ____
ROOT
ATOM      1  O   HOH     1      46.073  74.096  42.685  0.00  0.00    +0.000 OA
ENDROOT
TORSDOF 0
REMARK  Name = Sucralfate
REMARK  29 active torsions:
REMARK  status: ('A' for Active; 'I' for Inactive)
REMARK    1  A    between atoms: C_1  and  C_2
REMARK    2  A    between atoms: C_1  and  O_58
REMARK    3  A    between atoms: C_3  and  O_52
REMARK    4  A    between atoms: C_4  and  O_46
REMARK    5  A    between atoms: C_5  and  O_40
REMARK    6  A    between atoms: C_6  and  O_8
REMARK    7  A    between atoms: O_8  and  C_9
REMARK    8  A    between atoms: C_9  and  C_33
REMARK    9  A    between atoms: C_10  and  O_27
REMARK   10  A    between atoms: C_11  and  O_21
REMARK   11  A    between atoms: C_12  and  C_14
REMARK   12  A    between atoms: C_14  and  O_15
REMARK   13  A    between atoms: O_15  and  S_16
REMARK   14  A    between atoms: S_16  and  O_19
REMARK   15  A    between atoms: O_21  and  S_22
REMARK   16  A    between atoms: S_22  and  O_25
REMARK   17  A    between atoms: O_27  and  S_28
REMARK   18  A    between atoms: S_28  and  O_31
REMARK   19  A    between atoms: C_33  and  O_34
REMARK   20  A    between atoms: O_34  and  S_35
REMARK   21  A    between atoms: S_35  and  O_38
REMARK   22  A    between atoms: O_40  and  S_41
REMARK   23  A    between atoms: S_41  and  O_44
REMARK   24  A    between atoms: O_46  and  S_47
REMARK   25  A    between atoms: S_47  and  O_50
REMARK   26  A    between atoms: O_52  and  S_53
REMARK   27  A    between atoms: S_53  and  O_56
REMARK   28  A    between atoms: O_58  and  S_59
REMARK   29  A    between atoms: S_59  and  O_62
REMARK                            x       y       z     vdW  Elec       q    Type
REMARK                         _______ _______ _______ _____ _____    ______ ____
ROOT
ATOM      1  O   HOH     1      46.074  74.088  42.684  0.00  0.00    +0.000 OA
ENDROOT
TORSDOF 0
REMARK  Name = Sucralfate
REMARK  29 active torsions:
REMARK  status: ('A' for Active; 'I' for Inactive)
REMARK    1  A    between atoms: C_1  and  C_2
REMARK    2  A    between atoms: C_1  and  O_58
REMARK    3  A    between atoms: C_3  and  O_52
REMARK    4  A    between atoms: C_4  and  O_46
REMARK    5  A    between atoms: C_5  and  O_40
REMARK    6  A    between atoms: C_6  and  O_8
REMARK    7  A    between atoms: O_8  and  C_9
REMARK    8  A    between atoms: C_9  and  C_33
REMARK    9  A    between atoms: C_10  and  O_27
REMARK   10  A    between atoms: C_11  and  O_21
REMARK   11  A    between atoms: C_12  and  C_14
REMARK   12  A    between atoms: C_14  and  O_15
REMARK   13  A    between atoms: O_15  and  S_16
REMARK   14  A    between atoms: S_16  and  O_19
REMARK   15  A    between atoms: O_21  and  S_22
REMARK   16  A    between atoms: S_22  and  O_25
REMARK   17  A    between atoms: O_27  and  S_28
REMARK   18  A    between atoms: S_28  and  O_31
REMARK   19  A    between atoms: C_33  and  O_34
REMARK   20  A    between atoms: O_34  and  S_35
REMARK   21  A    between atoms: S_35  and  O_38
REMARK   22  A    between atoms: O_40  and  S_41
REMARK   23  A    between atoms: S_41  and  O_44
REMARK   24  A    between atoms: O_46  and  S_47
REMARK   25  A    between atoms: S_47  and  O_50
REMARK   26  A    between atoms: O_52  and  S_53
REMARK   27  A    between atoms: S_53  and  O_56
REMARK   28  A    between atoms: O_58  and  S_59
REMARK   29  A    between atoms: S_59  and  O_62
REMARK                            x       y       z     vdW  Elec       q    Type
REMARK                         _______ _______ _______ _____ _____    ______ ____
ROOT
ATOM      1  O   HOH     1      46.075  74.098  42.685  0.00  0.00    +0.000 OA
ENDROOT
TORSDOF 0
REMARK  Name = Sucralfate
REMARK  29 active torsions:
REMARK  status: ('A' for Active; 'I' for Inactive)
REMARK    1  A    between atoms: C_1  and  C_2
REMARK    2  A    between atoms: C_1  and  O_58
REMARK    3  A    between atoms: C_3  and  O_52
REMARK    4  A    between atoms: C_4  and  O_46
REMARK    5  A    between atoms: C_5  and  O_40
REMARK    6  A    between atoms: C_6  and  O_8
REMARK    7  A    between atoms: O_8  and  C_9
REMARK    8  A    between atoms: C_9  and  C_33
REMARK    9  A    between atoms: C_10  and  O_27
REMARK   10  A    between atoms: C_11  and  O_21
REMARK   11  A    between atoms: C_12  and  C_14
REMARK   12  A    between atoms: C_14  and  O_15
REMARK   13  A    between atoms: O_15  and  S_16
REMARK   14  A    between atoms: S_16  and  O_19
REMARK   15  A    between atoms: O_21  and  S_22
REMARK   16  A    between atoms: S_22  and  O_25
REMARK   17  A    between atoms: O_27  and  S_28
REMARK   18  A    between atoms: S_28  and  O_31
REMARK   19  A    between atoms: C_33  and  O_34
REMARK   20  A    between atoms: O_34  and  S_35
REMARK   21  A    between atoms: S_35  and  O_38
REMARK   22  A    between atoms: O_40  and  S_41
REMARK   23  A    between atoms: S_41  and  O_44
REMARK   24  A    between atoms: O_46  and  S_47
REMARK   25  A    between atoms: S_47  and  O_50
REMARK   26  A    between atoms: O_52  and  S_53
REMARK   27  A    between atoms: S_53  and  O_56
REMARK   28  A    between atoms: O_58  and  S_59
REMARK   29  A    between atoms: S_59  and  O_62
REMARK                            x       y       z     vdW  Elec       q    Type
REMARK                         _______ _______ _______ _____ _____    ______ ____
ROOT
ATOM      1  O   HOH     1      46.073  74.100  42.685  0.00  0.00    +0.000 OA
ENDROOT
TORSDOF 0
REMARK  Name = Sucralfate
REMARK  29 active torsions:
REMARK  status: ('A' for Active; 'I' for Inactive)
REMARK    1  A    between atoms: C_1  and  C_2
REMARK    2  A    between atoms: C_1  and  O_58
REMARK    3  A    between atoms: C_3  and  O_52
REMARK    4  A    between atoms: C_4  and  O_46
REMARK    5  A    between atoms: C_5  and  O_40
REMARK    6  A    between atoms: C_6  and  O_8
REMARK    7  A    between atoms: O_8  and  C_9
REMARK    8  A    between atoms: C_9  and  C_33
REMARK    9  A    between atoms: C_10  and  O_27
REMARK   10  A    between atoms: C_11  and  O_21
REMARK   11  A    between atoms: C_12  and  C_14
REMARK   12  A    between atoms: C_14  and  O_15
REMARK   13  A    between atoms: O_15  and  S_16
REMARK   14  A    between atoms: S_16  and  O_19
REMARK   15  A    between atoms: O_21  and  S_22
REMARK   16  A    between atoms: S_22  and  O_25
REMARK   17  A    between atoms: O_27  and  S_28
REMARK   18  A    between atoms: S_28  and  O_31
REMARK   19  A    between atoms: C_33  and  O_34
REMARK   20  A    between atoms: O_34  and  S_35
REMARK   21  A    between atoms: S_35  and  O_38
REMARK   22  A    between atoms: O_40  and  S_41
REMARK   23  A    between atoms: S_41  and  O_44
REMARK   24  A    between atoms: O_46  and  S_47
REMARK   25  A    between atoms: S_47  and  O_50
REMARK   26  A    between atoms: O_52  and  S_53
REMARK   27  A    between atoms: S_53  and  O_56
REMARK   28  A    between atoms: O_58  and  S_59
REMARK   29  A    between atoms: S_59  and  O_62
REMARK                            x       y       z     vdW  Elec       q    Type
REMARK                         _______ _______ _______ _____ _____    ______ ____
ROOT
ATOM      1  O   HOH     1      46.069  74.086  42.684  0.00  0.00    +0.000 OA
ENDROOT
TORSDOF 0
REMARK  Name = Sucralfate
REMARK  29 active torsions:
REMARK  status: ('A' for Active; 'I' for Inactive)
REMARK    1  A    between atoms: C_1  and  C_2
REMARK    2  A    between atoms: C_1  and  O_58
REMARK    3  A    between atoms: C_3  and  O_52
REMARK    4  A    between atoms: C_4  and  O_46
REMARK    5  A    between atoms: C_5  and  O_40
REMARK    6  A    between atoms: C_6  and  O_8
REMARK    7  A    between atoms: O_8  and  C_9
REMARK    8  A    between atoms: C_9  and  C_33
REMARK    9  A    between atoms: C_10  and  O_27
REMARK   10  A    between atoms: C_11  and  O_21
REMARK   11  A    between atoms: C_12  and  C_14
REMARK   12  A    between atoms: C_14  and  O_15
REMARK   13  A    between atoms: O_15  and  S_16
REMARK   14  A    between atoms: S_16  and  O_19
REMARK   15  A    between atoms: O_21  and  S_22
REMARK   16  A    between atoms: S_22  and  O_25
REMARK   17  A    between atoms: O_27  and  S_28
REMARK   18  A    between atoms: S_28  and  O_31
REMARK   19  A    between atoms: C_33  and  O_34
REMARK   20  A    between atoms: O_34  and  S_35
REMARK   21  A    between atoms: S_35  and  O_38
REMARK   22  A    between atoms: O_40  and  S_41
REMARK   23  A    between atoms: S_41  and  O_44
REMARK   24  A    between atoms: O_46  and  S_47
REMARK   25  A    between atoms: S_47  and  O_50
REMARK   26  A    between atoms: O_52  and  S_53
REMARK   27  A    between atoms: S_53  and  O_56
REMARK   28  A    between atoms: O_58  and  S_59
REMARK   29  A    between atoms: S_59  and  O_62
REMARK                            x       y       z     vdW  Elec       q    Type
REMARK                         _______ _______ _______ _____ _____    ______ ____
ROOT
ATOM      1  O   HOH     1      46.070  74.094  42.685  0.00  0.00    +0.000 OA
ENDROOT
TORSDOF 0
REMARK  Name = Sucralfate
REMARK  29 active torsions:
REMARK  status: ('A' for Active; 'I' for Inactive)
REMARK    1  A    between atoms: C_1  and  C_2
REMARK    2  A    between atoms: C_1  and  O_58
REMARK    3  A    between atoms: C_3  and  O_52
REMARK    4  A    between atoms: C_4  and  O_46
REMARK    5  A    between atoms: C_5  and  O_40
REMARK    6  A    between atoms: C_6  and  O_8
REMARK    7  A    between atoms: O_8  and  C_9
REMARK    8  A    between atoms: C_9  and  C_33
REMARK    9  A    between atoms: C_10  and  O_27
REMARK   10  A    between atoms: C_11  and  O_21
REMARK   11  A    between atoms: C_12  and  C_14
REMARK   12  A    between atoms: C_14  and  O_15
REMARK   13  A    between atoms: O_15  and  S_16
REMARK   14  A    between atoms: S_16  and  O_19
REMARK   15  A    between atoms: O_21  and  S_22
REMARK   16  A    between atoms: S_22  and  O_25
REMARK   17  A    between atoms: O_27  and  S_28
REMARK   18  A    between atoms: S_28  and  O_31
REMARK   19  A    between atoms: C_33  and  O_34
REMARK   20  A    between atoms: O_34  and  S_35
REMARK   21  A    between atoms: S_35  and  O_38
REMARK   22  A    between atoms: O_40  and  S_41
REMARK   23  A    between atoms: S_41  and  O_44
REMARK   24  A    between atoms: O_46  and  S_47
REMARK   25  A    between atoms: S_47  and  O_50
REMARK   26  A    between atoms: O_52  and  S_53
REMARK   27  A    between atoms: S_53  and  O_56
REMARK   28  A    between atoms: O_58  and  S_59
REMARK   29  A    between atoms: S_59  and  O_62
REMARK                            x       y       z     vdW  Elec       q    Type
REMARK                         _______ _______ _______ _____ _____    ______ ____
ROOT
ATOM      1 AL   UNL     1      46.037  74.473  42.726  0.00  0.00    +0.000 Al
ENDROOT
TORSDOF 0
