REMARK  Name = Sufentanil
REMARK  8 active torsions:
REMARK  status: ('A' for Active; 'I' for Inactive)
REMARK    1  A    between atoms: C_2  and  C_3
REMARK    2  A    between atoms: N_5  and  C_6
REMARK    3  A    between atoms: N_5  and  C_12
REMARK    4  A    between atoms: C_12  and  C_25
REMARK    5  A    between atoms: N_15  and  C_18
REMARK    6  A    between atoms: C_18  and  C_19
REMARK    7  A    between atoms: C_19  and  C_20
REMARK    8  A    between atoms: C_25  and  O_26
REMARK                            x       y       z     vdW  Elec       q    Type
REMARK                         _______ _______ _______ _____ _____    ______ ____
ROOT
ATOM      1  C   UNL     1      45.342  79.300  40.419  0.00  0.00    +0.094 C 
ATOM      2  C   UNL     1      45.719  79.530  41.882  0.00  0.00    +0.038 C 
ATOM      3  C   UNL     1      46.748  80.588  41.995  0.00  0.00    +0.074 C 
ATOM      4  N   UNL     1      47.927  80.423  41.198  0.00  0.00    -0.272 NA
ATOM      5  C   UNL     1      47.661  79.998  39.852  0.00  0.00    +0.074 C 
ATOM      6  C   UNL     1      46.621  78.940  39.707  0.00  0.00    +0.038 C 
ENDROOT
BRANCH   1   9
ATOM      7  C   UNL     1      43.355  78.330  39.293  0.00  0.00    +0.229 C 
ATOM      8  O   UNL     1      43.374  79.201  38.406  0.00  0.00    -0.275 OA
ATOM      9  N   UNL     1      44.344  78.279  40.282  0.00  0.00    -0.259 N 
BRANCH   9  10
ATOM     10  C   UNL     1      44.345  77.158  41.151  0.00  0.00    +0.054 A 
ATOM     11  C   UNL     1      44.980  75.988  40.804  0.00  0.00    +0.015 A 
ATOM     12  C   UNL     1      44.990  74.882  41.638  0.00  0.00    +0.001 A 
ATOM     13  C   UNL     1      44.357  74.935  42.843  0.00  0.00    +0.000 A 
ATOM     14  C   UNL     1      43.715  76.097  43.209  0.00  0.00    +0.001 A 
ATOM     15  C   UNL     1      43.709  77.202  42.369  0.00  0.00    +0.015 A 
ENDBRANCH   9  10
BRANCH   7  17
ATOM     16  C   UNL     1      41.447  77.411  38.034  0.00  0.00    +0.010 C 
ATOM     17  C   UNL     1      42.257  77.311  39.314  0.00  0.00    +0.086 C 
ENDBRANCH   7  17
ENDBRANCH   1   9
BRANCH   4  18
ATOM     18  C   UNL     1      48.800  81.557  41.257  0.00  0.00    +0.077 C 
BRANCH  18  19
ATOM     19  C   UNL     1      49.472  81.668  42.603  0.00  0.00    +0.050 C 
BRANCH  19  20
ATOM     20  C   UNL     1      49.650  83.093  43.005  0.00  0.00    +0.009 A 
ATOM     21  C   UNL     1      50.742  83.844  43.305  0.00  0.00    +0.003 A 
ATOM     22  C   UNL     1      50.553  85.128  43.635  0.00  0.00    +0.007 A 
ATOM     23  C   UNL     1      49.270  85.598  43.645  0.00  0.00    +0.035 A 
ATOM     24  S   UNL     1      48.360  84.228  43.195  0.00  0.00    -0.091 S 
ENDBRANCH  19  20
ENDBRANCH  18  19
ENDBRANCH   4  18
BRANCH   1  25
ATOM     25  C   UNL     1      44.821  80.612  39.846  0.00  0.00    +0.161 C 
BRANCH  25  26
ATOM     26  O   UNL     1      45.718  81.080  38.900  0.00  0.00    -0.349 OA
ATOM     27  C   UNL     1      45.198  82.160  38.186  0.00  0.00    +0.174 C 
ENDBRANCH  25  26
ENDBRANCH   1  25
TORSDOF 8
