REMARK  Name = Sulfasalazine
REMARK  6 active torsions:
REMARK  status: ('A' for Active; 'I' for Inactive)
REMARK    1  A    between atoms: C_5  and  N_7
REMARK    2  A    between atoms: N_7  and  S_8
REMARK    3  A    between atoms: S_8  and  C_11
REMARK    4  A    between atoms: C_14  and  N_17
REMARK    5  A    between atoms: N_18  and  C_19
REMARK    6  A    between atoms: C_21  and  C_26
REMARK                            x       y       z     vdW  Elec       q    Type
REMARK                         _______ _______ _______ _____ _____    ______ ____
ROOT
ATOM      1  C   UNL     1      44.584  77.337  41.308  0.00  0.00    +0.127 A 
ATOM      2  C   UNL     1      44.128  78.645  41.220  0.00  0.00    +0.022 A 
ATOM      3  C   UNL     1      44.959  79.736  41.110  0.00  0.00    +0.022 A 
ATOM      4  C   UNL     1      46.324  79.545  41.083  0.00  0.00    +0.103 A 
ATOM      5  C   UNL     1      46.787  78.255  41.169  0.00  0.00    +0.022 A 
ATOM      6  C   UNL     1      45.947  77.157  41.280  0.00  0.00    +0.022 A 
ENDROOT
BRANCH   1   7
ATOM      7  S   UNL     1      43.407  76.079  41.436  0.00  0.00    +0.094 S 
ATOM      8  O   UNL     1      42.103  76.662  41.960  0.00  0.00    -0.148 OA
ATOM      9  O   UNL     1      43.870  74.979  42.374  0.00  0.00    -0.148 OA
BRANCH   7  10
ATOM     10  N   UNL     1      43.029  75.335  39.929  0.00  0.00    -0.077 NA
BRANCH  10  15
ATOM     11  C   UNL     1      41.187  76.199  36.815  0.00  0.00    +0.005 A 
ATOM     12  C   UNL     1      40.617  77.420  37.134  0.00  0.00    +0.021 A 
ATOM     13  C   UNL     1      40.883  77.903  38.400  0.00  0.00    +0.100 A 
ATOM     14  N   UNL     1      41.650  77.232  39.278  0.00  0.00    -0.226 NA
ATOM     15  C   UNL     1      42.218  76.049  39.005  0.00  0.00    +0.172 A 
ATOM     16  C   UNL     1      41.970  75.532  37.734  0.00  0.00    +0.038 A 
ENDBRANCH  10  15
ENDBRANCH   7  10
ENDBRANCH   1   7
BRANCH   4  17
ATOM     17  N   UNL     1      47.228  80.633  40.970  0.00  0.00    -0.148 NA
ATOM     18  N   UNL     1      46.833  81.777  41.341  0.00  0.00    -0.148 NA
BRANCH  18  19
ATOM     19  C   UNL     1      47.804  82.624  41.972  0.00  0.00    +0.103 A 
ATOM     20  C   UNL     1      49.145  82.297  41.977  0.00  0.00    +0.031 A 
ATOM     21  C   UNL     1      50.110  83.094  42.578  0.00  0.00    +0.120 A 
ATOM     22  C   UNL     1      49.730  84.265  43.199  0.00  0.00    +0.202 A 
ATOM     23  C   UNL     1      48.389  84.589  43.192  0.00  0.00    +0.044 A 
ATOM     24  C   UNL     1      47.432  83.797  42.596  0.00  0.00    +0.024 A 
ATOM     25  O   UNL     1      50.671  85.103  43.820  0.00  0.00    -0.286 OA
BRANCH  21  26
ATOM     26  C   UNL     1      51.497  82.678  42.539  0.00  0.00    +0.391 C 
ATOM     27  O   UNL     1      52.373  83.445  42.988  0.00  0.00    -0.240 OA
ATOM     28  O   UNL     1      51.874  81.460  42.018  0.00  0.00    -0.240 OA
ENDBRANCH  21  26
ENDBRANCH  18  19
ENDBRANCH   4  17
TORSDOF 6
