REMARK  Name = Sulfaphenazole
REMARK  4 active torsions:
REMARK  status: ('A' for Active; 'I' for Inactive)
REMARK    1  A    between atoms: C_4  and  N_7
REMARK    2  A    between atoms: C_8  and  N_12
REMARK    3  A    between atoms: N_12  and  S_13
REMARK    4  A    between atoms: S_13  and  C_16
REMARK                            x       y       z     vdW  Elec       q    Type
REMARK                         _______ _______ _______ _____ _____    ______ ____
ROOT
ATOM      1  N   UNL     1      45.705  81.031  39.245  0.00  0.00    -0.213 N 
ATOM      2  C   UNL     1      46.665  81.406  40.132  0.00  0.00    +0.175 A 
ATOM      3  C   UNL     1      47.199  82.588  39.685  0.00  0.00    +0.060 A 
ATOM      4  C   UNL     1      46.545  82.928  38.505  0.00  0.00    +0.124 A 
ATOM      5  N   UNL     1      45.663  81.945  38.307  0.00  0.00    -0.162 NA
ENDROOT
BRANCH   1   9
ATOM      6  C   UNL     1      43.255  77.609  39.473  0.00  0.00    +0.000 A 
ATOM      7  C   UNL     1      44.550  77.563  39.995  0.00  0.00    +0.002 A 
ATOM      8  C   UNL     1      45.367  78.687  39.925  0.00  0.00    +0.019 A 
ATOM      9  C   UNL     1      44.895  79.842  39.341  0.00  0.00    +0.084 A 
ATOM     10  C   UNL     1      43.617  79.892  38.824  0.00  0.00    +0.019 A 
ATOM     11  C   UNL     1      42.811  78.767  38.898  0.00  0.00    +0.002 A 
ENDBRANCH   1   9
BRANCH   2  12
ATOM     12  N   UNL     1      46.966  80.657  41.285  0.00  0.00    -0.077 NA
BRANCH  12  13
ATOM     13  S   UNL     1      48.385  80.839  42.208  0.00  0.00    +0.094 S 
ATOM     14  O   UNL     1      48.321  79.968  43.439  0.00  0.00    -0.148 OA
ATOM     15  O   UNL     1      49.610  80.421  41.409  0.00  0.00    -0.148 OA
BRANCH  13  16
ATOM     16  C   UNL     1      48.577  82.499  42.679  0.00  0.00    +0.127 A 
ATOM     17  C   UNL     1      47.526  83.259  43.107  0.00  0.00    +0.022 A 
ATOM     18  C   UNL     1      47.708  84.581  43.468  0.00  0.00    +0.019 A 
ATOM     19  C   UNL     1      48.974  85.135  43.393  0.00  0.00    +0.089 A 
ATOM     20  C   UNL     1      50.029  84.356  42.959  0.00  0.00    +0.019 A 
ATOM     21  C   UNL     1      49.836  83.056  42.606  0.00  0.00    +0.022 A 
ATOM     22  N   UNL     1      49.151  86.492  43.765  0.00  0.00    -0.128 NA
ENDBRANCH  13  16
ENDBRANCH  12  13
ENDBRANCH   2  12
TORSDOF 4
