REMARK  Name = Sulfadiazine
REMARK  2 active torsions:
REMARK  status: ('A' for Active; 'I' for Inactive)
REMARK    1  A    between atoms: N_7  and  S_8
REMARK    2  A    between atoms: S_8  and  C_11
REMARK                            x       y       z     vdW  Elec       q    Type
REMARK                         _______ _______ _______ _____ _____    ______ ____
ROOT
ATOM      1  S   UNL     1      47.297  82.743  42.441  0.00  0.00    +0.096 S 
ATOM      2  O   UNL     1      46.930  81.407  43.013  0.00  0.00    -0.148 OA
ATOM      3  O   UNL     1      46.834  83.773  43.463  0.00  0.00    -0.148 OA
ENDROOT
BRANCH   1  10
ATOM      4  C   UNL     1      44.868  79.935  38.707  0.00  0.00    +0.041 A 
ATOM      5  C   UNL     1      44.800  81.244  38.278  0.00  0.00    +0.104 A 
ATOM      6  N   UNL     1      45.318  82.255  39.010  0.00  0.00    -0.210 NA
ATOM      7  C   UNL     1      45.915  82.016  40.179  0.00  0.00    +0.259 A 
ATOM      8  N   UNL     1      45.973  80.736  40.584  0.00  0.00    -0.210 NA
ATOM      9  C   UNL     1      45.489  79.699  39.920  0.00  0.00    +0.104 A 
ATOM     10  N   UNL     1      46.471  83.051  40.974  0.00  0.00    -0.058 NA
ENDBRANCH   1  10
BRANCH   1  11
ATOM     11  C   UNL     1      49.023  82.913  42.318  0.00  0.00    +0.127 A 
ATOM     12  C   UNL     1      49.845  81.843  42.032  0.00  0.00    +0.022 A 
ATOM     13  C   UNL     1      51.215  81.993  41.940  0.00  0.00    +0.019 A 
ATOM     14  C   UNL     1      51.820  83.234  42.133  0.00  0.00    +0.089 A 
ATOM     15  C   UNL     1      50.964  84.285  42.419  0.00  0.00    +0.019 A 
ATOM     16  C   UNL     1      49.599  84.157  42.515  0.00  0.00    +0.022 A 
ATOM     17  N   UNL     1      53.224  83.403  42.042  0.00  0.00    -0.128 NA
ENDBRANCH   1  11
TORSDOF 2
