REMARK  Name = Sulfamethoxazole
REMARK  2 active torsions:
REMARK  status: ('A' for Active; 'I' for Inactive)
REMARK    1  A    between atoms: N_7  and  S_8
REMARK    2  A    between atoms: S_8  and  C_11
REMARK                            x       y       z     vdW  Elec       q    Type
REMARK                         _______ _______ _______ _____ _____    ______ ____
ROOT
ATOM      1  S   UNL     1      44.374  78.744  40.507  0.00  0.00    +0.094 S 
ATOM      2  O   UNL     1      43.929  79.984  41.257  0.00  0.00    -0.148 OA
ATOM      3  O   UNL     1      44.725  77.715  41.526  0.00  0.00    -0.148 OA
ENDROOT
BRANCH   1  10
ATOM      4  C   UNL     1      47.686  83.732  39.958  0.00  0.00    +0.075 C 
ATOM      5  C   UNL     1      46.877  82.569  39.482  0.00  0.00    +0.156 A 
ATOM      6  C   UNL     1      46.908  81.328  40.063  0.00  0.00    +0.077 A 
ATOM      7  C   UNL     1      46.024  80.535  39.333  0.00  0.00    +0.213 A 
ATOM      8  N   UNL     1      45.524  81.330  38.377  0.00  0.00    -0.059 NA
ATOM      9  O   UNL     1      46.033  82.524  38.475  0.00  0.00    -0.356 OA
ATOM     10  N   UNL     1      45.745  79.167  39.593  0.00  0.00    -0.074 NA
ENDBRANCH   1  10
BRANCH   1  11
ATOM     11  C   UNL     1      43.046  78.180  39.511  0.00  0.00    +0.127 A 
ATOM     12  C   UNL     1      42.447  76.965  39.795  0.00  0.00    +0.022 A 
ATOM     13  C   UNL     1      41.399  76.487  39.035  0.00  0.00    +0.019 A 
ATOM     14  C   UNL     1      40.912  77.212  37.962  0.00  0.00    +0.089 A 
ATOM     15  C   UNL     1      41.496  78.422  37.667  0.00  0.00    +0.019 A 
ATOM     16  C   UNL     1      42.548  78.889  38.439  0.00  0.00    +0.022 A 
ATOM     17  N   UNL     1      39.824  76.690  37.194  0.00  0.00    -0.128 NA
ENDBRANCH   1  11
TORSDOF 2
