REMARK  Name = Sulfamethazine
REMARK  2 active torsions:
REMARK  status: ('A' for Active; 'I' for Inactive)
REMARK    1  A    between atoms: N_8  and  S_9
REMARK    2  A    between atoms: S_9  and  C_12
REMARK                            x       y       z     vdW  Elec       q    Type
REMARK                         _______ _______ _______ _____ _____    ______ ____
ROOT
ATOM      1  S   UNL     1      48.394  82.391  43.327  0.00  0.00    +0.096 S 
ATOM      2  O   UNL     1      48.685  82.318  44.802  0.00  0.00    -0.148 OA
ATOM      3  O   UNL     1      47.399  83.501  43.128  0.00  0.00    -0.148 OA
ENDROOT
BRANCH   1  11
ATOM      4  C   UNL     1      44.838  78.361  39.888  0.00  0.00    +0.052 C 
ATOM      5  C   UNL     1      45.626  79.602  40.154  0.00  0.00    +0.064 A 
ATOM      6  C   UNL     1      45.693  80.643  39.251  0.00  0.00    +0.030 A 
ATOM      7  C   UNL     1      46.426  81.788  39.507  0.00  0.00    +0.064 A 
ATOM      8  N   UNL     1      47.074  81.848  40.677  0.00  0.00    -0.215 NA
ATOM      9  C   UNL     1      47.022  80.836  41.583  0.00  0.00    +0.258 A 
ATOM     10  N   UNL     1      46.303  79.743  41.300  0.00  0.00    -0.215 NA
ATOM     11  N   UNL     1      47.713  80.913  42.813  0.00  0.00    -0.058 NA
ATOM     12  C   UNL     1      46.485  82.905  38.512  0.00  0.00    +0.052 C 
ENDBRANCH   1  11
BRANCH   1  13
ATOM     13  C   UNL     1      49.891  82.705  42.513  0.00  0.00    +0.127 A 
ATOM     14  C   UNL     1      51.078  82.088  42.890  0.00  0.00    +0.022 A 
ATOM     15  C   UNL     1      52.239  82.379  42.219  0.00  0.00    +0.019 A 
ATOM     16  C   UNL     1      52.299  83.267  41.171  0.00  0.00    +0.089 A 
ATOM     17  C   UNL     1      51.126  83.884  40.790  0.00  0.00    +0.019 A 
ATOM     18  C   UNL     1      49.932  83.597  41.465  0.00  0.00    +0.022 A 
ATOM     19  N   UNL     1      53.522  83.547  40.495  0.00  0.00    -0.128 NA
ENDBRANCH   1  13
TORSDOF 2
