REMARK  Name = Sulfamethizole
REMARK  2 active torsions:
REMARK  status: ('A' for Active; 'I' for Inactive)
REMARK    1  A    between atoms: N_7  and  S_8
REMARK    2  A    between atoms: S_8  and  C_11
REMARK                            x       y       z     vdW  Elec       q    Type
REMARK                         _______ _______ _______ _____ _____    ______ ____
ROOT
ATOM      1  S   UNL     1      43.968  78.593  39.754  0.00  0.00    +0.095 S 
ATOM      2  O   UNL     1      44.846  77.664  40.533  0.00  0.00    -0.148 OA
ATOM      3  O   UNL     1      43.436  79.599  40.767  0.00  0.00    -0.148 OA
ENDROOT
BRANCH   1  10
ATOM      4  C   UNL     1      47.941  83.565  40.565  0.00  0.00    +0.061 C 
ATOM      5  C   UNL     1      47.047  82.589  39.861  0.00  0.00    +0.113 A 
ATOM      6  N   UNL     1      46.327  82.752  38.756  0.00  0.00    -0.144 NA
ATOM      7  N   UNL     1      45.627  81.810  38.306  0.00  0.00    -0.123 NA
ATOM      8  C   UNL     1      45.603  80.637  38.938  0.00  0.00    +0.224 A 
ATOM      9  S   UNL     1      46.660  80.955  40.243  0.00  0.00    -0.032 S 
ATOM     10  N   UNL     1      44.883  79.462  38.588  0.00  0.00    -0.068 NA
ENDBRANCH   1  10
BRANCH   1  11
ATOM     11  C   UNL     1      42.612  77.743  39.054  0.00  0.00    +0.127 A 
ATOM     12  C   UNL     1      41.894  78.340  38.015  0.00  0.00    +0.022 A 
ATOM     13  C   UNL     1      40.816  77.708  37.420  0.00  0.00    +0.019 A 
ATOM     14  C   UNL     1      40.415  76.458  37.840  0.00  0.00    +0.089 A 
ATOM     15  C   UNL     1      41.110  75.851  38.863  0.00  0.00    +0.019 A 
ATOM     16  C   UNL     1      42.195  76.497  39.456  0.00  0.00    +0.022 A 
ATOM     17  N   UNL     1      39.298  75.825  37.210  0.00  0.00    -0.128 NA
ENDBRANCH   1  11
TORSDOF 2
