REMARK  Name = Sulfonamides
REMARK  8 active torsions:
REMARK  status: ('A' for Active; 'I' for Inactive)
REMARK    1  A    between atoms: C_2  and  O_3
REMARK    2  A    between atoms: O_3  and  C_4
REMARK    3  A    between atoms: C_4  and  C_6
REMARK    4  A    between atoms: C_6  and  N_7
REMARK    5  A    between atoms: N_7  and  C_8
REMARK    6  A    between atoms: N_7  and  S_16
REMARK    7  A    between atoms: C_13  and  C_14
REMARK    8  A    between atoms: S_16  and  C_19
REMARK                            x       y       z     vdW  Elec       q    Type
REMARK                         _______ _______ _______ _____ _____    ______ ____
ROOT
ATOM      1  N   UNL     1      46.041  80.017  40.990  0.00  0.00    -0.179 N 
ENDROOT
BRANCH   1   2
ATOM      2  C   UNL     1      44.998  79.772  40.047  0.00  0.00    +0.073 A 
ATOM      3  C   UNL     1      43.999  78.840  40.224  0.00  0.00    +0.016 A 
ATOM      4  C   UNL     1      43.012  78.651  39.249  0.00  0.00    +0.001 A 
ATOM      5  C   UNL     1      43.007  79.388  38.085  0.00  0.00    +0.000 A 
ATOM      6  C   UNL     1      44.001  80.321  37.902  0.00  0.00    +0.005 A 
ATOM      7  C   UNL     1      44.988  80.510  38.878  0.00  0.00    +0.057 A 
BRANCH   7   8
ATOM      8  C   UNL     1      46.019  81.506  38.659  0.00  0.00    +0.235 C 
ATOM      9  O   UNL     1      45.785  82.612  38.120  0.00  0.00    -0.283 OA
ENDBRANCH   7   8
ENDBRANCH   1   2
BRANCH   1  10
ATOM     10  S   UNL     1      46.578  81.588  41.362  0.00  0.00    +0.077 S 
ATOM     11  O   UNL     1      46.198  82.576  40.272  0.00  0.00    -0.150 OA
ATOM     12  O   UNL     1      45.920  82.110  42.629  0.00  0.00    -0.150 OA
BRANCH  10  13
ATOM     13  C   UNL     1      48.297  81.725  41.585  0.00  0.00    +0.125 A 
ATOM     14  C   UNL     1      49.141  81.912  40.530  0.00  0.00    +0.020 A 
ATOM     15  C   UNL     1      50.495  82.024  40.705  0.00  0.00    +0.001 A 
ATOM     16  C   UNL     1      51.043  81.950  41.967  0.00  0.00    +0.000 A 
ATOM     17  C   UNL     1      50.218  81.762  43.042  0.00  0.00    +0.001 A 
ATOM     18  C   UNL     1      48.836  81.650  42.848  0.00  0.00    +0.020 A 
ENDBRANCH  10  13
ENDBRANCH   1  10
BRANCH   1  19
ATOM     19  C   UNL     1      46.661  78.898  41.665  0.00  0.00    +0.225 C 
BRANCH  19  20
ATOM     20  C   UNL     1      45.771  78.236  42.645  0.00  0.00    +0.339 C 
ATOM     21  O   UNL     1      44.602  78.702  42.849  0.00  0.00    -0.248 OA
BRANCH  20  22
ATOM     22  O   UNL     1      46.103  77.125  43.382  0.00  0.00    -0.447 OA
BRANCH  22  24
ATOM     23  C   UNL     1      44.859  75.119  43.770  0.00  0.00    +0.051 C 
ATOM     24  C   UNL     1      45.247  76.487  44.302  0.00  0.00    +0.209 C 
ENDBRANCH  22  24
ENDBRANCH  20  22
ENDBRANCH  19  20
ENDBRANCH   1  19
TORSDOF 8
