REMARK  Name = Sulfoxone
REMARK  8 active torsions:
REMARK  status: ('A' for Active; 'I' for Inactive)
REMARK    1  A    between atoms: C_3  and  S_12
REMARK    2  A    between atoms: C_6  and  N_7
REMARK    3  A    between atoms: N_7  and  C_8
REMARK    4  A    between atoms: C_8  and  S_9
REMARK    5  A    between atoms: S_12  and  C_15
REMARK    6  A    between atoms: C_18  and  N_21
REMARK    7  A    between atoms: N_21  and  C_22
REMARK    8  A    between atoms: C_22  and  S_23
REMARK                            x       y       z     vdW  Elec       q    Type
REMARK                         _______ _______ _______ _____ _____    ______ ____
ROOT
ATOM      1  S   UNL     1      44.322  81.378  39.363  0.00  0.00    +0.027 S 
ATOM      2  O   UNL     1      43.436  82.319  40.140  0.00  0.00    -0.164 OA
ATOM      3  O   UNL     1      44.494  81.982  37.980  0.00  0.00    -0.164 OA
ENDROOT
BRANCH   1   6
ATOM      4  C   UNL     1      47.430  80.322  41.682  0.00  0.00    +0.017 A 
ATOM      5  C   UNL     1      46.186  80.323  41.090  0.00  0.00    +0.020 A 
ATOM      6  C   UNL     1      45.877  81.298  40.165  0.00  0.00    +0.110 A 
ATOM      7  C   UNL     1      46.819  82.259  39.847  0.00  0.00    +0.020 A 
ATOM      8  C   UNL     1      48.057  82.258  40.436  0.00  0.00    +0.017 A 
ATOM      9  C   UNL     1      48.382  81.292  41.361  0.00  0.00    +0.067 A 
BRANCH   9  10
ATOM     10  N   UNL     1      49.657  81.267  41.991  0.00  0.00    -0.212 NA
BRANCH  10  11
ATOM     11  C   UNL     1      50.731  82.152  41.590  0.00  0.00    +0.274 C 
BRANCH  11  12
ATOM     12  S   UNL     1      52.097  82.039  42.826  0.00  0.00    +0.062 S 
ATOM     13  O   UNL     1      52.369  80.507  42.784  0.00  0.00    -0.162 OA
ATOM     14  O   UNL     1      51.227  82.163  44.330  0.00  0.00    -0.064 OA
ENDBRANCH  11  12
ENDBRANCH  10  11
ENDBRANCH   9  10
ENDBRANCH   1   6
BRANCH   1  15
ATOM     15  C   UNL     1      43.595  79.805  39.221  0.00  0.00    +0.110 A 
ATOM     16  C   UNL     1      42.892  79.478  38.088  0.00  0.00    +0.020 A 
ATOM     17  C   UNL     1      42.324  78.228  37.994  0.00  0.00    +0.017 A 
ATOM     18  C   UNL     1      42.430  77.275  39.002  0.00  0.00    +0.067 A 
ATOM     19  C   UNL     1      43.139  77.628  40.125  0.00  0.00    +0.017 A 
ATOM     20  C   UNL     1      43.715  78.882  40.231  0.00  0.00    +0.020 A 
BRANCH  18  21
ATOM     21  N   UNL     1      41.813  76.002  38.842  0.00  0.00    -0.212 NA
BRANCH  21  22
ATOM     22  C   UNL     1      41.043  75.716  37.656  0.00  0.00    +0.274 C 
BRANCH  22  23
ATOM     23  S   UNL     1      40.420  73.973  37.830  0.00  0.00    +0.062 S 
ATOM     24  O   UNL     1      39.077  74.252  38.560  0.00  0.00    -0.162 OA
ATOM     25  O   UNL     1      41.399  73.431  39.163  0.00  0.00    -0.064 OA
ENDBRANCH  22  23
ENDBRANCH  21  22
ENDBRANCH  18  21
ENDBRANCH   1  15
TORSDOF 8
