REMARK  Name = Sulfamerazine
REMARK  2 active torsions:
REMARK  status: ('A' for Active; 'I' for Inactive)
REMARK    1  A    between atoms: N_8  and  S_9
REMARK    2  A    between atoms: S_9  and  C_12
REMARK                            x       y       z     vdW  Elec       q    Type
REMARK                         _______ _______ _______ _____ _____    ______ ____
ROOT
ATOM      1  S   UNL     1      47.333  82.964  42.062  0.00  0.00    +0.096 S 
ATOM      2  O   UNL     1      46.703  81.844  42.858  0.00  0.00    -0.148 OA
ATOM      3  O   UNL     1      47.039  84.233  42.827  0.00  0.00    -0.148 OA
ENDROOT
BRANCH   1  11
ATOM      4  C   UNL     1      45.166  78.418  40.629  0.00  0.00    +0.052 C 
ATOM      5  C   UNL     1      45.299  79.752  39.947  0.00  0.00    +0.064 A 
ATOM      6  N   UNL     1      45.943  80.774  40.535  0.00  0.00    -0.215 NA
ATOM      7  C   UNL     1      46.038  81.965  39.878  0.00  0.00    +0.258 A 
ATOM      8  N   UNL     1      45.477  82.057  38.661  0.00  0.00    -0.210 NA
ATOM      9  C   UNL     1      44.827  81.056  38.045  0.00  0.00    +0.103 A 
ATOM     10  C   UNL     1      44.731  79.860  38.704  0.00  0.00    +0.036 A 
ATOM     11  N   UNL     1      46.710  83.051  40.481  0.00  0.00    -0.058 NA
ENDBRANCH   1  11
BRANCH   1  12
ATOM     12  C   UNL     1      49.069  82.747  42.072  0.00  0.00    +0.127 A 
ATOM     13  C   UNL     1      49.917  83.673  41.473  0.00  0.00    +0.022 A 
ATOM     14  C   UNL     1      51.286  83.510  41.471  0.00  0.00    +0.019 A 
ATOM     15  C   UNL     1      51.886  82.417  42.065  0.00  0.00    +0.089 A 
ATOM     16  C   UNL     1      51.046  81.497  42.660  0.00  0.00    +0.019 A 
ATOM     17  C   UNL     1      49.672  81.658  42.664  0.00  0.00    +0.022 A 
ATOM     18  N   UNL     1      53.296  82.240  42.069  0.00  0.00    -0.128 NA
ENDBRANCH   1  12
TORSDOF 2
