REMARK  Name = Sulfacytine
REMARK  3 active torsions:
REMARK  status: ('A' for Active; 'I' for Inactive)
REMARK    1  A    between atoms: C_2  and  N_3
REMARK    2  A    between atoms: N_10  and  S_11
REMARK    3  A    between atoms: S_11  and  C_14
REMARK                            x       y       z     vdW  Elec       q    Type
REMARK                         _______ _______ _______ _____ _____    ______ ____
ROOT
ATOM      1  N   UNL     1      43.242  77.153  39.880  0.00  0.00    -0.278 N 
ATOM      2  C   UNL     1      43.018  77.505  38.606  0.00  0.00    +0.083 A 
ATOM      3  C   UNL     1      43.664  78.618  38.053  0.00  0.00    +0.057 A 
ATOM      4  C   UNL     1      44.521  79.315  38.861  0.00  0.00    +0.178 A 
ATOM      5  N   UNL     1      44.728  78.931  40.158  0.00  0.00    -0.174 NA
ATOM      6  C   UNL     1      44.089  77.865  40.638  0.00  0.00    +0.351 A 
ATOM      7  O   UNL     1      44.316  77.554  41.843  0.00  0.00    -0.244 OA
ATOM      8  N   UNL     1      45.177  80.455  38.382  0.00  0.00    -0.077 NA
ENDROOT
BRANCH   8   9
ATOM      9  S   UNL     1      45.645  81.764  39.353  0.00  0.00    +0.094 S 
ATOM     10  O   UNL     1      44.571  82.021  40.404  0.00  0.00    -0.148 OA
ATOM     11  O   UNL     1      45.713  83.052  38.551  0.00  0.00    -0.148 OA
BRANCH   9  12
ATOM     12  C   UNL     1      47.130  81.506  40.214  0.00  0.00    +0.127 A 
ATOM     13  C   UNL     1      47.080  80.818  41.406  0.00  0.00    +0.022 A 
ATOM     14  C   UNL     1      48.207  80.594  42.187  0.00  0.00    +0.019 A 
ATOM     15  C   UNL     1      49.403  81.100  41.712  0.00  0.00    +0.089 A 
ATOM     16  C   UNL     1      49.467  81.784  40.533  0.00  0.00    +0.019 A 
ATOM     17  C   UNL     1      48.327  81.991  39.777  0.00  0.00    +0.022 A 
ATOM     18  N   UNL     1      50.564  80.880  42.498  0.00  0.00    -0.128 NA
ENDBRANCH   9  12
ENDBRANCH   8   9
BRANCH   1  20
ATOM     19  C   UNL     1      43.575  74.858  40.673  0.00  0.00    +0.027 C 
ATOM     20  C   UNL     1      42.591  76.003  40.497  0.00  0.00    +0.111 C 
ENDBRANCH   1  20
TORSDOF 3
