REMARK  Name = Sulfapyridine
REMARK  3 active torsions:
REMARK  status: ('A' for Active; 'I' for Inactive)
REMARK    1  A    between atoms: C_5  and  N_7
REMARK    2  A    between atoms: N_7  and  S_8
REMARK    3  A    between atoms: S_8  and  C_11
REMARK                            x       y       z     vdW  Elec       q    Type
REMARK                         _______ _______ _______ _____ _____    ______ ____
ROOT
ATOM      1  S   UNL     1      45.448  81.682  39.384  0.00  0.00    +0.094 S 
ATOM      2  O   UNL     1      45.540  82.855  38.437  0.00  0.00    -0.148 OA
ATOM      3  O   UNL     1      44.333  81.983  40.373  0.00  0.00    -0.148 OA
ENDROOT
BRANCH   1   4
ATOM      4  C   UNL     1      46.923  81.575  40.295  0.00  0.00    +0.127 A 
ATOM      5  C   UNL     1      47.017  80.845  41.434  0.00  0.00    +0.022 A 
ATOM      6  C   UNL     1      48.215  80.766  42.149  0.00  0.00    +0.019 A 
ATOM      7  C   UNL     1      49.332  81.434  41.707  0.00  0.00    +0.089 A 
ATOM      8  C   UNL     1      49.242  82.182  40.544  0.00  0.00    +0.019 A 
ATOM      9  C   UNL     1      48.059  82.256  39.843  0.00  0.00    +0.022 A 
ATOM     10  N   UNL     1      50.580  81.396  42.386  0.00  0.00    -0.128 NA
ENDBRANCH   1   4
BRANCH   1  11
ATOM     11  N   UNL     1      45.164  80.233  38.543  0.00  0.00    -0.077 NA
BRANCH  11  16
ATOM     12  C   UNL     1      42.491  77.718  38.711  0.00  0.00    +0.005 A 
ATOM     13  C   UNL     1      42.799  77.188  39.943  0.00  0.00    +0.021 A 
ATOM     14  C   UNL     1      43.851  77.651  40.705  0.00  0.00    +0.100 A 
ATOM     15  N   UNL     1      44.564  78.648  40.187  0.00  0.00    -0.226 NA
ATOM     16  C   UNL     1      44.318  79.224  38.973  0.00  0.00    +0.172 A 
ATOM     17  C   UNL     1      43.278  78.763  38.223  0.00  0.00    +0.038 A 
ENDBRANCH  11  16
ENDBRANCH   1  11
TORSDOF 3
