REMARK  Name = Sulfinpyrazone
REMARK  6 active torsions:
REMARK  status: ('A' for Active; 'I' for Inactive)
REMARK    1  A    between atoms: C_4  and  N_7
REMARK    2  A    between atoms: C_10  and  C_20
REMARK    3  A    between atoms: N_13  and  C_14
REMARK    4  A    between atoms: C_20  and  C_21
REMARK    5  A    between atoms: C_21  and  S_22
REMARK    6  A    between atoms: S_22  and  C_24
REMARK                            x       y       z     vdW  Elec       q    Type
REMARK                         _______ _______ _______ _____ _____    ______ ____
ROOT
ATOM      1  N   UNL     1      45.014  78.113  41.146  0.00  0.00    -0.179 N 
ATOM      2  C   UNL     1      46.142  78.888  41.552  0.00  0.00    +0.254 C 
ATOM      3  O   UNL     1      46.807  78.786  42.609  0.00  0.00    -0.272 OA
ATOM      4  C   UNL     1      46.395  79.871  40.459  0.00  0.00    +0.158 C 
ATOM      5  C   UNL     1      45.035  80.042  39.917  0.00  0.00    +0.254 C 
ATOM      6  O   UNL     1      44.490  81.021  39.348  0.00  0.00    -0.272 OA
ATOM      7  N   UNL     1      44.330  78.804  40.151  0.00  0.00    -0.179 N 
ENDROOT
BRANCH   1  11
ATOM      8  C   UNL     1      44.005  74.281  42.616  0.00  0.00    +0.000 A 
ATOM      9  C   UNL     1      43.802  75.401  43.430  0.00  0.00    +0.001 A 
ATOM     10  C   UNL     1      44.134  76.647  42.941  0.00  0.00    +0.017 A 
ATOM     11  C   UNL     1      44.660  76.842  41.683  0.00  0.00    +0.073 A 
ATOM     12  C   UNL     1      44.843  75.707  40.914  0.00  0.00    +0.017 A 
ATOM     13  C   UNL     1      44.526  74.452  41.362  0.00  0.00    +0.001 A 
ENDBRANCH   1  11
BRANCH   7  14
ATOM     14  C   UNL     1      43.152  78.343  39.501  0.00  0.00    +0.073 A 
ATOM     15  C   UNL     1      42.088  77.857  40.263  0.00  0.00    +0.017 A 
ATOM     16  C   UNL     1      40.920  77.398  39.658  0.00  0.00    +0.001 A 
ATOM     17  C   UNL     1      40.813  77.425  38.288  0.00  0.00    +0.000 A 
ATOM     18  C   UNL     1      41.838  77.896  37.502  0.00  0.00    +0.001 A 
ATOM     19  C   UNL     1      42.984  78.344  38.134  0.00  0.00    +0.017 A 
ENDBRANCH   7  14
BRANCH   4  20
ATOM     20  C   UNL     1      46.977  81.088  41.103  0.00  0.00    +0.033 C 
BRANCH  20  21
ATOM     21  C   UNL     1      48.340  80.739  41.653  0.00  0.00    +0.097 C 
BRANCH  21  22
ATOM     22  S   UNL     1      49.486  82.004  40.956  0.00  0.00    +0.065 S 
ATOM     23  O   UNL     1      48.717  82.487  39.702  0.00  0.00    -0.251 OA
BRANCH  22  24
ATOM     24  C   UNL     1      49.310  83.408  42.060  0.00  0.00    +0.056 A 
ATOM     25  C   UNL     1      50.286  83.644  42.998  0.00  0.00    +0.009 A 
ATOM     26  C   UNL     1      50.181  84.723  43.876  0.00  0.00    +0.001 A 
ATOM     27  C   UNL     1      49.089  85.565  43.807  0.00  0.00    +0.000 A 
ATOM     28  C   UNL     1      48.120  85.329  42.875  0.00  0.00    +0.001 A 
ATOM     29  C   UNL     1      48.248  84.267  42.029  0.00  0.00    +0.009 A 
ENDBRANCH  22  24
ENDBRANCH  21  22
ENDBRANCH  20  21
ENDBRANCH   4  20
TORSDOF 6
