REMARK  Name = Sulindac
REMARK  4 active torsions:
REMARK  status: ('A' for Active; 'I' for Inactive)
REMARK    1  A    between atoms: C_3  and  C_22
REMARK    2  A    between atoms: C_7  and  C_8
REMARK    3  A    between atoms: C_11  and  S_14
REMARK    4  A    between atoms: C_22  and  C_23
REMARK                            x       y       z     vdW  Elec       q    Type
REMARK                         _______ _______ _______ _____ _____    ______ ____
ROOT
ATOM      1  C   UNL     1      44.196  80.756  37.417  0.00  0.00    +0.031 C 
ATOM      2  C   UNL     1      44.401  79.952  38.639  0.00  0.00    -0.025 C 
ATOM      3  C   UNL     1      43.790  78.830  38.921  0.00  0.00    -0.015 C 
ATOM      4  C   UNL     1      44.256  78.327  40.218  0.00  0.00    -0.002 A 
ATOM      5  C   UNL     1      45.202  79.233  40.712  0.00  0.00    -0.000 A 
ATOM      6  C   UNL     1      45.340  80.304  39.735  0.00  0.00    -0.004 C 
ATOM      7  C   UNL     1      46.062  81.389  39.738  0.00  0.00    -0.000 C 
ATOM      8  C   UNL     1      45.772  78.985  41.920  0.00  0.00    +0.002 A 
ATOM      9  C   UNL     1      45.387  77.830  42.613  0.00  0.00    +0.030 A 
ATOM     10  C   UNL     1      44.467  76.948  42.127  0.00  0.00    +0.140 A 
ATOM     11  C   UNL     1      43.883  77.200  40.899  0.00  0.00    +0.029 A 
ATOM     12  F   UNL     1      44.075  75.821  42.780  0.00  0.00    -0.204 F 
ENDROOT
BRANCH   7  13
ATOM     13  C   UNL     1      47.110  81.836  40.609  0.00  0.00    +0.000 A 
ATOM     14  C   UNL     1      47.109  82.959  41.395  0.00  0.00    +0.001 A 
ATOM     15  C   UNL     1      48.143  83.339  42.210  0.00  0.00    +0.009 A 
ATOM     16  C   UNL     1      49.286  82.557  42.269  0.00  0.00    +0.056 A 
ATOM     17  C   UNL     1      49.327  81.435  41.506  0.00  0.00    +0.009 A 
ATOM     18  C   UNL     1      48.281  81.064  40.691  0.00  0.00    +0.001 A 
BRANCH  16  19
ATOM     19  S   UNL     1      50.642  83.077  43.330  0.00  0.00    +0.066 S 
ATOM     20  O   UNL     1      51.660  81.936  43.157  0.00  0.00    -0.251 OA
ATOM     21  C   UNL     1      49.958  82.690  45.001  0.00  0.00    +0.111 C 
ENDBRANCH  16  19
ENDBRANCH   7  13
BRANCH   3  22
ATOM     22  C   UNL     1      42.757  78.147  38.093  0.00  0.00    +0.140 C 
BRANCH  22  23
ATOM     23  C   UNL     1      41.496  78.016  38.821  0.00  0.00    +0.369 C 
ATOM     24  O   UNL     1      41.199  78.839  39.718  0.00  0.00    -0.245 OA
ATOM     25  O   UNL     1      40.623  76.990  38.519  0.00  0.00    -0.245 OA
ENDBRANCH  22  23
ENDBRANCH   3  22
TORSDOF 4
