REMARK  Name = Sulodexide
REMARK  4 active torsions:
REMARK  status: ('A' for Active; 'I' for Inactive)
REMARK    1  A    between atoms: N_2  and  C_3
REMARK    2  A    between atoms: N_9  and  C_12
REMARK    3  A    between atoms: C_13  and  O_20
REMARK    4  A    between atoms: C_15  and  C_17
REMARK                            x       y       z     vdW  Elec       q    Type
REMARK                         _______ _______ _______ _____ _____    ______ ____
ROOT
ATOM      1  C   UNL     1      45.255  81.031  38.836  0.00  0.00    +0.170 A 
ATOM      2  C   UNL     1      46.123  80.846  39.894  0.00  0.00    +0.150 A 
ATOM      3  C   UNL     1      47.112  81.765  40.143  0.00  0.00    +0.169 A 
ATOM      4  N   UNL     1      47.194  82.823  39.334  0.00  0.00    -0.205 NA
ATOM      5  C   UNL     1      46.364  83.027  38.298  0.00  0.00    +0.202 A 
ATOM      6  N   UNL     1      45.400  82.132  38.055  0.00  0.00    -0.206 NA
ATOM      7  N   UNL     1      47.824  81.353  41.231  0.00  0.00    -0.269 N 
ATOM      8  C   UNL     1      47.270  80.212  41.622  0.00  0.00    +0.182 A 
ATOM      9  N   UNL     1      46.235  79.879  40.829  0.00  0.00    -0.219 NA
ENDROOT
BRANCH   7  10
ATOM     10  C   UNL     1      48.932  82.110  41.741  0.00  0.00    +0.238 C 
ATOM     11  C   UNL     1      48.578  83.019  42.865  0.00  0.00    +0.197 C 
ATOM     12  C   UNL     1      49.914  83.138  43.610  0.00  0.00    +0.213 C 
ATOM     13  C   UNL     1      50.752  82.094  42.899  0.00  0.00    +0.183 C 
ATOM     14  O   UNL     1      49.819  81.205  42.368  0.00  0.00    -0.331 OA
ATOM     15  O   UNL     1      50.511  84.380  43.322  0.00  0.00    -0.218 OA
BRANCH  13  16
ATOM     16  C   UNL     1      51.703  81.405  43.852  0.00  0.00    +0.214 C 
ATOM     17  O   UNL     1      50.971  80.340  44.425  0.00  0.00    -0.218 OA
ENDBRANCH  13  16
BRANCH  11  18
ATOM     18  O   UNL     1      48.214  84.288  42.488  0.00  0.00    -0.346 OA
ATOM     19  C   UNL     1      47.387  84.835  43.465  0.00  0.00    +0.174 C 
ENDBRANCH  11  18
ENDBRANCH   7  10
BRANCH   1  21
ATOM     20  C   UNL     1      44.171  78.873  39.376  0.00  0.00    +0.137 C 
ATOM     21  N   UNL     1      44.236  80.076  38.585  0.00  0.00    -0.217 NA
ENDBRANCH   1  21
TORSDOF 4
