REMARK  Name = Sulpiride
REMARK  6 active torsions:
REMARK  status: ('A' for Active; 'I' for Inactive)
REMARK    1  A    between atoms: C_2  and  N_3
REMARK    2  A    between atoms: C_7  and  C_8
REMARK    3  A    between atoms: C_8  and  N_9
REMARK    4  A    between atoms: C_10  and  C_12
REMARK    5  A    between atoms: C_13  and  O_22
REMARK    6  A    between atoms: C_16  and  S_18
REMARK                            x       y       z     vdW  Elec       q    Type
REMARK                         _______ _______ _______ _____ _____    ______ ____
ROOT
ATOM      1  C   UNL     1      46.787  80.587  40.757  0.00  0.00    +0.090 A 
ATOM      2  C   UNL     1      46.861  81.587  39.817  0.00  0.00    +0.143 A 
ATOM      3  C   UNL     1      47.991  82.407  39.791  0.00  0.00    +0.038 A 
ATOM      4  C   UNL     1      48.998  82.216  40.684  0.00  0.00    +0.023 A 
ATOM      5  C   UNL     1      48.914  81.210  41.623  0.00  0.00    +0.125 A 
ATOM      6  C   UNL     1      47.828  80.402  41.666  0.00  0.00    +0.028 A 
ENDROOT
BRANCH   5   7
ATOM      7  S   UNL     1      50.226  80.983  42.765  0.00  0.00    +0.094 S 
ATOM      8  O   UNL     1      51.258  82.071  42.629  0.00  0.00    -0.150 OA
ATOM      9  O   UNL     1      49.682  81.019  44.166  0.00  0.00    -0.150 OA
ATOM     10  N   UNL     1      50.964  79.431  42.521  0.00  0.00    +0.039 NA
ENDBRANCH   5   7
BRANCH   1  12
ATOM     11  N   UNL     1      45.381  78.575  41.555  0.00  0.00    -0.200 NA
ATOM     12  C   UNL     1      45.622  79.731  40.792  0.00  0.00    +0.268 C 
ATOM     13  O   UNL     1      44.661  80.062  40.022  0.00  0.00    -0.268 OA
BRANCH  11  14
ATOM     14  C   UNL     1      44.093  77.904  41.587  0.00  0.00    +0.131 C 
BRANCH  14  19
ATOM     15  N   UNL     1      42.352  76.900  40.324  0.00  0.00    -0.272 NA
ATOM     16  C   UNL     1      42.136  75.500  40.163  0.00  0.00    +0.072 C 
ATOM     17  C   UNL     1      43.447  74.812  40.033  0.00  0.00    +0.019 C 
ATOM     18  C   UNL     1      44.484  75.841  40.361  0.00  0.00    +0.019 C 
ATOM     19  C   UNL     1      43.760  77.160  40.347  0.00  0.00    +0.079 C 
BRANCH  15  21
ATOM     20  C   UNL     1      40.868  76.698  38.371  0.00  0.00    +0.019 C 
ATOM     21  C   UNL     1      41.651  77.612  39.288  0.00  0.00    +0.072 C 
ENDBRANCH  15  21
ENDBRANCH  14  19
ENDBRANCH  11  14
ENDBRANCH   1  12
BRANCH   2  22
ATOM     22  O   UNL     1      45.909  81.869  38.872  0.00  0.00    -0.471 OA
ATOM     23  C   UNL     1      46.064  82.893  37.943  0.00  0.00    +0.252 C 
ENDBRANCH   2  22
TORSDOF 6
