REMARK  Name = Sulphadoxine
REMARK  5 active torsions:
REMARK  status: ('A' for Active; 'I' for Inactive)
REMARK    1  A    between atoms: O_2  and  C_3
REMARK    2  A    between atoms: C_4  and  N_11
REMARK    3  A    between atoms: C_8  and  O_9
REMARK    4  A    between atoms: N_11  and  S_12
REMARK    5  A    between atoms: S_12  and  C_15
REMARK                            x       y       z     vdW  Elec       q    Type
REMARK                         _______ _______ _______ _____ _____    ______ ____
ROOT
ATOM      1  N   UNL     1      47.409  81.207  42.175  0.00  0.00    -0.074 NA
ENDROOT
BRANCH   1   3
ATOM      2  C   UNL     1      45.775  80.424  40.469  0.00  0.00    +0.227 A 
ATOM      3  C   UNL     1      46.675  81.283  41.001  0.00  0.00    +0.212 A 
ATOM      4  N   UNL     1      46.872  82.435  40.238  0.00  0.00    -0.203 NA
ATOM      5  C   UNL     1      46.230  82.656  39.104  0.00  0.00    +0.203 A 
ATOM      6  N   UNL     1      45.339  81.772  38.616  0.00  0.00    -0.187 NA
ATOM      7  C   UNL     1      45.085  80.641  39.274  0.00  0.00    +0.265 A 
BRANCH   2   9
ATOM      8  C   UNL     1      46.548  78.227  40.993  0.00  0.00    +0.253 C 
ATOM      9  O   UNL     1      45.489  79.221  41.101  0.00  0.00    -0.464 OA
ENDBRANCH   2   9
BRANCH   7  10
ATOM     10  O   UNL     1      44.201  79.708  38.840  0.00  0.00    -0.454 OA
ATOM     11  C   UNL     1      43.066  79.933  38.064  0.00  0.00    +0.254 C 
ENDBRANCH   7  10
ENDBRANCH   1   3
BRANCH   1  12
ATOM     12  S   UNL     1      48.215  82.336  43.133  0.00  0.00    +0.094 S 
ATOM     13  O   UNL     1      47.595  83.658  43.305  0.00  0.00    -0.148 OA
ATOM     14  O   UNL     1      48.506  81.784  44.514  0.00  0.00    -0.148 OA
BRANCH  12  15
ATOM     15  C   UNL     1      49.789  82.664  42.382  0.00  0.00    +0.127 A 
ATOM     16  C   UNL     1      49.943  83.830  41.687  0.00  0.00    +0.022 A 
ATOM     17  C   UNL     1      51.166  84.143  41.071  0.00  0.00    +0.019 A 
ATOM     18  C   UNL     1      52.181  83.226  41.205  0.00  0.00    +0.089 A 
ATOM     19  C   UNL     1      52.048  82.061  41.892  0.00  0.00    +0.019 A 
ATOM     20  C   UNL     1      50.814  81.781  42.493  0.00  0.00    +0.022 A 
ATOM     21  N   UNL     1      53.443  83.506  40.594  0.00  0.00    -0.128 NA
ENDBRANCH  12  15
ENDBRANCH   1  12
TORSDOF 5
