REMARK  Name = Sulprostone
REMARK  12 active torsions:
REMARK  status: ('A' for Active; 'I' for Inactive)
REMARK    1  A    between atoms: S_2  and  N_5
REMARK    2  A    between atoms: C_6  and  C_8
REMARK    3  A    between atoms: C_8  and  C_9
REMARK    4  A    between atoms: C_9  and  C_10
REMARK    5  A    between atoms: C_10  and  C_11
REMARK    6  A    between atoms: C_12  and  C_13
REMARK    7  A    between atoms: C_13  and  C_14
REMARK    8  A    between atoms: C_15  and  C_21
REMARK    9  A    between atoms: C_22  and  C_23
REMARK   10  A    between atoms: C_23  and  C_24
REMARK   11  A    between atoms: C_24  and  O_25
REMARK   12  A    between atoms: O_25  and  C_26
REMARK                            x       y       z     vdW  Elec       q    Type
REMARK                         _______ _______ _______ _____ _____    ______ ____
ROOT
ATOM      1  C   UNL     1      44.051  77.574  39.963  0.00  0.00    +0.068 C 
ATOM      2  C   UNL     1      44.343  78.450  38.721  0.00  0.00    +0.060 C 
ATOM      3  C   UNL     1      43.030  78.274  38.010  0.00  0.00    +0.164 C 
ATOM      4  C   UNL     1      41.999  78.339  39.138  0.00  0.00    +0.098 C 
ATOM      5  C   UNL     1      42.807  78.281  40.391  0.00  0.00    +0.154 C 
ATOM      6  O   UNL     1      42.482  78.715  41.447  0.00  0.00    -0.296 OA
ATOM      7  O   UNL     1      42.788  79.132  36.978  0.00  0.00    -0.222 OA
ENDROOT
BRANCH   2   8
ATOM      8  C   UNL     1      44.627  79.820  39.138  0.00  0.00    -0.025 C 
ATOM      9  C   UNL     1      45.791  80.396  39.207  0.00  0.00    +0.005 C 
BRANCH   9  10
ATOM     10  C   UNL     1      45.919  81.890  39.158  0.00  0.00    +0.217 C 
ATOM     11  O   UNL     1      44.888  82.462  39.844  0.00  0.00    -0.214 OA
BRANCH  10  12
ATOM     12  C   UNL     1      47.262  82.292  39.711  0.00  0.00    +0.243 C 
BRANCH  12  13
ATOM     13  O   UNL     1      47.342  82.867  40.906  0.00  0.00    -0.472 OA
BRANCH  13  14
ATOM     14  C   UNL     1      48.203  83.301  41.828  0.00  0.00    +0.139 A 
ATOM     15  C   UNL     1      49.574  83.073  41.617  0.00  0.00    +0.037 A 
ATOM     16  C   UNL     1      50.520  83.474  42.496  0.00  0.00    +0.003 A 
ATOM     17  C   UNL     1      50.162  84.136  43.656  0.00  0.00    +0.000 A 
ATOM     18  C   UNL     1      48.843  84.366  43.879  0.00  0.00    +0.003 A 
ATOM     19  C   UNL     1      47.867  83.952  42.972  0.00  0.00    +0.037 A 
ENDBRANCH  13  14
ENDBRANCH  12  13
ENDBRANCH  10  12
ENDBRANCH   9  10
ENDBRANCH   2   8
BRANCH   1  20
ATOM     20  C   UNL     1      45.145  77.629  40.946  0.00  0.00    +0.033 C 
BRANCH  20  22
ATOM     21  C   UNL     1      44.163  76.829  43.088  0.00  0.00    -0.031 C 
ATOM     22  C   UNL     1      44.573  77.811  42.302  0.00  0.00    -0.030 C 
BRANCH  21  23
ATOM     23  C   UNL     1      45.087  75.860  43.736  0.00  0.00    +0.026 C 
BRANCH  23  24
ATOM     24  C   UNL     1      45.267  76.331  45.179  0.00  0.00    +0.014 C 
BRANCH  24  25
ATOM     25  C   UNL     1      44.676  75.258  46.066  0.00  0.00    +0.089 C 
BRANCH  25  27
ATOM     26  N   UNL     1      44.290  74.883  48.547  0.00  0.00    -0.063 NA
ATOM     27  C   UNL     1      44.765  75.677  47.492  0.00  0.00    +0.262 C 
ATOM     28  O   UNL     1      45.291  76.795  47.778  0.00  0.00    -0.272 OA
BRANCH  26  30
ATOM     29  C   UNL     1      43.619  76.875  50.488  0.00  0.00    +0.202 C 
ATOM     30  S   UNL     1      44.489  75.356  50.178  0.00  0.00    +0.078 S 
ATOM     31  O   UNL     1      43.913  74.306  51.074  0.00  0.00    -0.153 OA
ATOM     32  O   UNL     1      45.956  75.560  50.429  0.00  0.00    -0.153 OA
ENDBRANCH  26  30
ENDBRANCH  25  27
ENDBRANCH  24  25
ENDBRANCH  23  24
ENDBRANCH  21  23
ENDBRANCH  20  22
ENDBRANCH   1  20
TORSDOF 12
