REMARK  Name = Sultamicillin_tosilate
REMARK  10 active torsions:
REMARK  status: ('A' for Active; 'I' for Inactive)
REMARK    1  A    between atoms: C_5  and  S_8
REMARK    2  A    between atoms: C_14  and  C_32
REMARK    3  A    between atoms: C_18  and  N_21
REMARK    4  A    between atoms: C_22  and  C_24
REMARK    5  A    between atoms: C_24  and  C_25
REMARK    6  A    between atoms: C_32  and  O_34
REMARK    7  A    between atoms: O_34  and  C_35
REMARK    8  A    between atoms: C_35  and  O_36
REMARK    9  A    between atoms: O_36  and  C_37
REMARK   10  A    between atoms: C_37  and  C_39
REMARK                            x       y       z     vdW  Elec       q    Type
REMARK                         _______ _______ _______ _____ _____    ______ ____
ROOT
ATOM      1  C   UNL     1      40.916  76.346  39.161  0.00  0.00    +0.031 C 
ATOM      2  C   UNL     1      42.176  77.143  39.270  0.00  0.00    -0.022 A 
ATOM      3  C   UNL     1      43.360  76.537  39.629  0.00  0.00    -0.003 A 
ATOM      4  C   UNL     1      44.551  77.249  39.740  0.00  0.00    +0.021 A 
ATOM      5  C   UNL     1      44.574  78.608  39.488  0.00  0.00    +0.136 A 
ATOM      6  C   UNL     1      43.394  79.211  39.131  0.00  0.00    +0.021 A 
ATOM      7  C   UNL     1      42.204  78.499  39.020  0.00  0.00    -0.003 A 
ENDROOT
BRANCH   5   8
ATOM      8  S   UNL     1      46.049  79.546  39.615  0.00  0.00    +0.141 S 
ATOM      9  O   UNL     1      45.953  80.628  40.628  0.00  0.00    -0.140 OA
ATOM     10  O   UNL     1      46.286  80.187  38.257  0.00  0.00    -0.140 OA
ATOM     11  O   UNL     1      47.379  78.588  39.931  0.00  0.00    -0.043 OA
ENDBRANCH   5   8
TORSDOF 1
REMARK  Name = Sultamicillin_tosilate
REMARK  10 active torsions:
REMARK  status: ('A' for Active; 'I' for Inactive)
REMARK    1  A    between atoms: C_5  and  S_8
REMARK    2  A    between atoms: C_14  and  C_32
REMARK    3  A    between atoms: C_18  and  N_21
REMARK    4  A    between atoms: C_22  and  C_24
REMARK    5  A    between atoms: C_24  and  C_25
REMARK    6  A    between atoms: C_32  and  O_34
REMARK    7  A    between atoms: O_34  and  C_35
REMARK    8  A    between atoms: C_35  and  O_36
REMARK    9  A    between atoms: O_36  and  C_37
REMARK   10  A    between atoms: C_37  and  C_39
REMARK                            x       y       z     vdW  Elec       q    Type
REMARK                         _______ _______ _______ _____ _____    ______ ____
ROOT
ATOM      1  C   UNL     1      44.703  76.004  42.878  0.00  0.00    +0.013 C 
ATOM      2  C   UNL     1      44.193  77.242  42.143  0.00  0.00    +0.068 C 
ATOM      3  C   UNL     1      44.350  77.132  40.681  0.00  0.00    +0.185 C 
ATOM      4  N   UNL     1      45.108  78.216  40.171  0.00  0.00    -0.260 N 
ATOM      5  C   UNL     1      46.154  78.687  41.036  0.00  0.00    +0.153 C 
ATOM      6  S   UNL     1      45.307  78.607  42.656  0.00  0.00    -0.118 S 
ATOM      7  C   UNL     1      45.960  80.015  40.393  0.00  0.00    +0.200 C 
ATOM      8  C   UNL     1      45.502  79.207  39.258  0.00  0.00    +0.249 C 
ATOM      9  O   UNL     1      45.474  79.341  38.017  0.00  0.00    -0.273 OA
ATOM     10  C   UNL     1      42.784  77.481  42.605  0.00  0.00    +0.013 C 
ENDROOT
BRANCH   7  11
ATOM     11  N   UNL     1      47.132  80.820  40.186  0.00  0.00    -0.194 NA
ATOM     12  C   UNL     1      47.201  82.187  40.548  0.00  0.00    +0.264 C 
ATOM     13  O   UNL     1      46.108  82.797  40.807  0.00  0.00    -0.271 OA
BRANCH  12  14
ATOM     14  C   UNL     1      48.504  82.869  40.617  0.00  0.00    +0.191 C 
ATOM     15  N   UNL     1      48.700  83.823  39.527  0.00  0.00    -0.118 NA
BRANCH  14  16
ATOM     16  C   UNL     1      48.762  83.589  41.875  0.00  0.00    +0.004 A 
ATOM     17  C   UNL     1      47.625  84.069  42.536  0.00  0.00    -0.002 A 
ATOM     18  C   UNL     1      47.779  84.746  43.723  0.00  0.00    -0.000 A 
ATOM     19  C   UNL     1      49.029  84.957  44.264  0.00  0.00    -0.000 A 
ATOM     20  C   UNL     1      50.140  84.478  43.603  0.00  0.00    -0.000 A 
ATOM     21  C   UNL     1      49.997  83.788  42.397  0.00  0.00    -0.002 A 
ENDBRANCH  14  16
ENDBRANCH  12  14
ENDBRANCH   7  11
BRANCH   3  22
ATOM     22  C   UNL     1      42.934  77.095  40.113  0.00  0.00    +0.339 C 
ATOM     23  O   UNL     1      42.693  77.997  39.306  0.00  0.00    -0.248 OA
BRANCH  22  24
ATOM     24  O   UNL     1      42.032  76.186  40.446  0.00  0.00    -0.407 OA
BRANCH  24  25
ATOM     25  C   UNL     1      40.736  75.967  40.053  0.00  0.00    +0.433 C 
BRANCH  25  26
ATOM     26  O   UNL     1      40.368  75.634  38.804  0.00  0.00    -0.407 OA
BRANCH  26  27
ATOM     27  C   UNL     1      40.360  76.067  37.556  0.00  0.00    +0.340 C 
ATOM     28  O   UNL     1      40.834  77.195  37.307  0.00  0.00    -0.248 OA
BRANCH  27  29
ATOM     29  C   UNL     1      39.826  75.329  36.365  0.00  0.00    +0.196 C 
ATOM     30  C   UNL     1      38.691  76.096  35.724  0.00  0.00    +0.139 C 
ATOM     31  S   UNL     1      37.306  75.538  36.727  0.00  0.00    +0.005 S 
ATOM     32  O   UNL     1      36.877  76.585  37.682  0.00  0.00    -0.171 OA
ATOM     33  O   UNL     1      36.213  74.995  35.887  0.00  0.00    -0.171 OA
ATOM     34  C   UNL     1      38.133  74.207  37.610  0.00  0.00    +0.215 C 
ATOM     35  N   UNL     1      39.299  74.031  36.753  0.00  0.00    -0.252 N 
ATOM     36  C   UNL     1      39.096  72.632  36.901  0.00  0.00    +0.231 C 
ATOM     37  O   UNL     1      39.805  71.605  36.819  0.00  0.00    -0.275 OA
ATOM     38  C   UNL     1      37.659  72.843  37.208  0.00  0.00    +0.130 C 
ATOM     39  C   UNL     1      38.431  75.614  34.318  0.00  0.00    +0.026 C 
ATOM     40  C   UNL     1      38.824  77.578  35.820  0.00  0.00    +0.026 C 
ENDBRANCH  27  29
ENDBRANCH  26  27
ENDBRANCH  25  26
ENDBRANCH  24  25
ENDBRANCH  22  24
ENDBRANCH   3  22
TORSDOF 9
