REMARK  Name = Sunitinib
REMARK  7 active torsions:
REMARK  status: ('A' for Active; 'I' for Inactive)
REMARK    1  A    between atoms: C_2  and  N_3
REMARK    2  A    between atoms: N_3  and  C_4
REMARK    3  A    between atoms: N_3  and  C_6
REMARK    4  A    between atoms: C_6  and  C_7
REMARK    5  A    between atoms: C_7  and  N_8
REMARK    6  A    between atoms: C_9  and  C_11
REMARK    7  A    between atoms: C_14  and  C_17
REMARK                            x       y       z     vdW  Elec       q    Type
REMARK                         _______ _______ _______ _____ _____    ______ ____
ROOT
ATOM      1  C   UNL     1      42.464  77.580  39.270  0.00  0.00    +0.066 A 
ATOM      2  C   UNL     1      42.406  78.623  38.406  0.00  0.00    +0.063 A 
ATOM      3  N   UNL     1      43.422  79.464  38.695  0.00  0.00    -0.250 NA
ATOM      4  C   UNL     1      44.162  79.038  39.712  0.00  0.00    +0.077 A 
ATOM      5  C   UNL     1      43.566  77.831  40.097  0.00  0.00    +0.001 A 
ATOM      6  C   UNL     1      44.047  76.986  41.196  0.00  0.00    +0.033 C 
ATOM      7  C   UNL     1      41.416  78.846  37.337  0.00  0.00    +0.052 C 
ENDROOT
BRANCH   4   8
ATOM      8  C   UNL     1      45.319  79.626  40.344  0.00  0.00    +0.023 C 
ATOM      9  C   UNL     1      46.005  80.677  39.994  0.00  0.00    +0.058 C 
ATOM     10  C   UNL     1      47.229  81.277  40.507  0.00  0.00    +0.022 A 
ATOM     11  C   UNL     1      47.535  82.453  39.815  0.00  0.00    +0.074 A 
ATOM     12  C   UNL     1      48.647  83.225  40.079  0.00  0.00    +0.019 A 
ATOM     13  C   UNL     1      49.495  82.803  41.079  0.00  0.00    +0.031 A 
ATOM     14  C   UNL     1      49.215  81.636  41.783  0.00  0.00    +0.140 A 
ATOM     15  C   UNL     1      48.089  80.888  41.489  0.00  0.00    +0.031 A 
ATOM     16  F   UNL     1      50.049  81.217  42.768  0.00  0.00    -0.204 F 
ATOM     17  N   UNL     1      46.525  82.647  38.839  0.00  0.00    -0.175 NA
ATOM     18  C   UNL     1      45.578  81.607  38.900  0.00  0.00    +0.269 C 
ATOM     19  O   UNL     1      44.565  81.462  38.193  0.00  0.00    -0.268 OA
ENDBRANCH   4   8
BRANCH   1  21
ATOM     20  N   UNL     1      40.444  76.140  38.699  0.00  0.00    -0.200 NA
ATOM     21  C   UNL     1      41.625  76.371  39.400  0.00  0.00    +0.266 C 
ATOM     22  O   UNL     1      42.009  75.456  40.221  0.00  0.00    -0.268 OA
BRANCH  20  23
ATOM     23  C   UNL     1      40.327  75.038  37.780  0.00  0.00    +0.133 C 
BRANCH  23  24
ATOM     24  C   UNL     1      39.325  73.996  38.196  0.00  0.00    +0.096 C 
BRANCH  24  25
ATOM     25  N   UNL     1      38.379  73.789  37.162  0.00  0.00    -0.271 NA
BRANCH  25  27
ATOM     26  C   UNL     1      39.636  72.712  35.319  0.00  0.00    +0.019 C 
ATOM     27  C   UNL     1      38.877  73.885  35.833  0.00  0.00    +0.072 C 
ENDBRANCH  25  27
BRANCH  25  28
ATOM     28  C   UNL     1      37.230  73.043  37.381  0.00  0.00    +0.072 C 
ATOM     29  C   UNL     1      36.228  73.557  38.376  0.00  0.00    +0.019 C 
ENDBRANCH  25  28
ENDBRANCH  24  25
ENDBRANCH  23  24
ENDBRANCH  20  23
ENDBRANCH   1  21
TORSDOF 7
