REMARK  Name = Suplatast_tosilate
REMARK  11 active torsions:
REMARK  status: ('A' for Active; 'I' for Inactive)
REMARK    1  A    between atoms: C_2  and  O_3
REMARK    2  A    between atoms: O_3  and  C_4
REMARK    3  A    between atoms: C_4  and  C_5
REMARK    4  A    between atoms: C_5  and  C_6
REMARK    5  A    between atoms: C_6  and  O_7
REMARK    6  A    between atoms: O_7  and  C_8
REMARK    7  A    between atoms: C_11  and  N_14
REMARK    8  A    between atoms: C_15  and  C_17
REMARK    9  A    between atoms: C_17  and  C_18
REMARK   10  A    between atoms: C_18  and  S_19
REMARK   11  A    between atoms: C_27  and  S_30
REMARK                            x       y       z     vdW  Elec       q    Type
REMARK                         _______ _______ _______ _____ _____    ______ ____
ROOT
ATOM      1  C   UNL     1      45.434  80.084  40.279  0.00  0.00    +0.139 A 
ATOM      2  C   UNL     1      44.057  80.356  40.333  0.00  0.00    +0.038 A 
ATOM      3  C   UNL     1      43.119  79.662  39.611  0.00  0.00    +0.020 A 
ATOM      4  C   UNL     1      43.530  78.638  38.782  0.00  0.00    +0.074 A 
ATOM      5  C   UNL     1      44.869  78.325  38.687  0.00  0.00    +0.020 A 
ATOM      6  C   UNL     1      45.790  79.058  39.441  0.00  0.00    +0.038 A 
ENDROOT
BRANCH   4   7
ATOM      7  N   UNL     1      42.559  77.914  38.030  0.00  0.00    -0.179 NA
ATOM      8  C   UNL     1      41.526  77.178  38.673  0.00  0.00    +0.246 C 
ATOM      9  O   UNL     1      41.190  77.423  39.852  0.00  0.00    -0.273 OA
BRANCH   8  10
ATOM     10  C   UNL     1      40.813  76.081  37.937  0.00  0.00    +0.098 C 
BRANCH  10  11
ATOM     11  C   UNL     1      39.539  75.697  38.614  0.00  0.00    +0.058 C 
BRANCH  11  12
ATOM     12  S   UNL     1      38.203  76.044  37.488  0.00  0.00    -0.177 S 
ATOM     13  C   UNL     1      38.238  74.732  36.260  0.00  0.00    +0.059 C 
ATOM     14  C   UNL     1      36.688  75.772  38.425  0.00  0.00    +0.059 C 
ENDBRANCH  11  12
ENDBRANCH  10  11
ENDBRANCH   8  10
ENDBRANCH   4   7
BRANCH   1  15
ATOM     15  O   UNL     1      46.253  80.851  41.049  0.00  0.00    -0.473 OA
BRANCH  15  16
ATOM     16  C   UNL     1      47.525  80.642  41.490  0.00  0.00    +0.241 C 
BRANCH  16  17
ATOM     17  C   UNL     1      48.214  81.758  42.196  0.00  0.00    +0.225 C 
ATOM     18  O   UNL     1      48.092  82.890  41.351  0.00  0.00    -0.216 OA
BRANCH  17  19
ATOM     19  C   UNL     1      49.703  81.520  42.351  0.00  0.00    +0.179 C 
BRANCH  19  20
ATOM     20  O   UNL     1      50.447  82.485  41.679  0.00  0.00    -0.351 OA
BRANCH  20  22
ATOM     21  C   UNL     1      52.387  83.266  42.872  0.00  0.00    +0.035 C 
ATOM     22  C   UNL     1      51.800  82.327  41.842  0.00  0.00    +0.142 C 
ENDBRANCH  20  22
ENDBRANCH  19  20
ENDBRANCH  17  19
ENDBRANCH  16  17
ENDBRANCH  15  16
ENDBRANCH   1  15
TORSDOF 10
REMARK  Name = Suplatast_tosilate
REMARK  11 active torsions:
REMARK  status: ('A' for Active; 'I' for Inactive)
REMARK    1  A    between atoms: C_2  and  O_3
REMARK    2  A    between atoms: O_3  and  C_4
REMARK    3  A    between atoms: C_4  and  C_5
REMARK    4  A    between atoms: C_5  and  C_6
REMARK    5  A    between atoms: C_6  and  O_7
REMARK    6  A    between atoms: O_7  and  C_8
REMARK    7  A    between atoms: C_11  and  N_14
REMARK    8  A    between atoms: C_15  and  C_17
REMARK    9  A    between atoms: C_17  and  C_18
REMARK   10  A    between atoms: C_18  and  S_19
REMARK   11  A    between atoms: C_27  and  S_30
REMARK                            x       y       z     vdW  Elec       q    Type
REMARK                         _______ _______ _______ _____ _____    ______ ____
ROOT
ATOM      1  C   UNL     1      42.150  76.657  38.552  0.00  0.00    +0.031 C 
ATOM      2  C   UNL     1      43.024  77.834  38.827  0.00  0.00    -0.022 A 
ATOM      3  C   UNL     1      43.144  78.883  37.940  0.00  0.00    -0.003 A 
ATOM      4  C   UNL     1      43.951  79.974  38.192  0.00  0.00    +0.021 A 
ATOM      5  C   UNL     1      44.684  80.068  39.356  0.00  0.00    +0.136 A 
ATOM      6  C   UNL     1      44.563  79.019  40.244  0.00  0.00    +0.021 A 
ATOM      7  C   UNL     1      43.756  77.928  39.992  0.00  0.00    -0.003 A 
ENDROOT
BRANCH   5   8
ATOM      8  S   UNL     1      45.713  81.449  39.687  0.00  0.00    +0.141 S 
ATOM      9  O   UNL     1      47.004  81.025  40.330  0.00  0.00    -0.140 OA
ATOM     10  O   UNL     1      46.066  82.120  38.389  0.00  0.00    -0.140 OA
ATOM     11  O   UNL     1      44.962  82.551  40.705  0.00  0.00    -0.043 OA
ENDBRANCH   5   8
TORSDOF 1
