REMARK  Name = Suprofen
REMARK  4 active torsions:
REMARK  status: ('A' for Active; 'I' for Inactive)
REMARK    1  A    between atoms: C_2  and  C_3
REMARK    2  A    between atoms: C_2  and  C_16
REMARK    3  A    between atoms: C_6  and  C_9
REMARK    4  A    between atoms: C_9  and  C_11
REMARK                            x       y       z     vdW  Elec       q    Type
REMARK                         _______ _______ _______ _____ _____    ______ ____
ROOT
ATOM      1  C   UNL     1      45.792  80.070  40.378  0.00  0.00    -0.012 A 
ATOM      2  C   UNL     1      46.243  79.816  41.642  0.00  0.00    -0.004 A 
ATOM      3  C   UNL     1      47.351  80.482  42.158  0.00  0.00    +0.003 A 
ATOM      4  C   UNL     1      48.037  81.417  41.427  0.00  0.00    +0.039 A 
ATOM      5  C   UNL     1      47.562  81.657  40.148  0.00  0.00    +0.003 A 
ATOM      6  C   UNL     1      46.470  81.004  39.635  0.00  0.00    -0.004 A 
ENDROOT
BRANCH   1   8
ATOM      7  C   UNL     1      44.914  78.020  39.245  0.00  0.00    +0.017 C 
ATOM      8  C   UNL     1      44.630  79.386  39.769  0.00  0.00    +0.126 C 
BRANCH   8   9
ATOM      9  C   UNL     1      44.146  80.263  38.660  0.00  0.00    +0.368 C 
ATOM     10  O   UNL     1      44.736  81.318  38.366  0.00  0.00    -0.245 OA
ATOM     11  O   UNL     1      43.018  79.876  37.956  0.00  0.00    -0.245 OA
ENDBRANCH   8   9
ENDBRANCH   1   8
BRANCH   4  12
ATOM     12  C   UNL     1      49.164  82.147  41.891  0.00  0.00    +0.201 C 
ATOM     13  O   UNL     1      50.322  81.760  41.570  0.00  0.00    -0.286 OA
BRANCH  12  14
ATOM     14  C   UNL     1      49.095  83.353  42.737  0.00  0.00    +0.068 A 
ATOM     15  C   UNL     1      47.991  84.054  43.122  0.00  0.00    +0.010 A 
ATOM     16  C   UNL     1      48.177  85.121  43.914  0.00  0.00    +0.008 A 
ATOM     17  C   UNL     1      49.469  85.417  44.271  0.00  0.00    +0.036 A 
ATOM     18  S   UNL     1      50.367  84.199  43.489  0.00  0.00    -0.083 S 
ENDBRANCH  12  14
ENDBRANCH   4  12
TORSDOF 4
