REMARK  Name = Suvorexant
REMARK  2 active torsions:
REMARK  status: ('A' for Active; 'I' for Inactive)
REMARK    1  A    between atoms: C_9  and  C_11
REMARK    2  A    between atoms: C_12  and  N_18
REMARK                            x       y       z     vdW  Elec       q    Type
REMARK                         _______ _______ _______ _____ _____    ______ ____
ROOT
ATOM      1  C   UNL     1      45.983  80.151  37.191  0.00  0.00    +0.022 C 
ATOM      2  C   UNL     1      44.963  80.776  38.114  0.00  0.00    +0.077 C 
ATOM      3  C   UNL     1      45.503  82.115  38.544  0.00  0.00    +0.041 C 
ATOM      4  C   UNL     1      46.872  82.026  39.123  0.00  0.00    +0.097 C 
ATOM      5  N   UNL     1      46.935  81.493  40.453  0.00  0.00    -0.262 N 
ATOM      6  C   UNL     1      46.354  80.258  40.931  0.00  0.00    +0.117 C 
ATOM      7  C   UNL     1      44.864  80.348  40.683  0.00  0.00    +0.115 C 
ATOM      8  N   UNL     1      44.654  79.975  39.275  0.00  0.00    -0.276 N 
ATOM      9  C   UNL     1      44.081  78.699  39.129  0.00  0.00    +0.251 C 
ATOM     10  O   UNL     1      43.876  78.259  37.948  0.00  0.00    -0.270 OA
ATOM     11  C   UNL     1      47.652  82.272  41.397  0.00  0.00    +0.292 A 
ATOM     12  N   UNL     1      48.946  82.629  41.319  0.00  0.00    -0.195 NA
ATOM     13  C   UNL     1      49.279  83.356  42.378  0.00  0.00    +0.121 A 
ATOM     14  C   UNL     1      48.131  83.450  43.147  0.00  0.00    +0.166 A 
ATOM     15  O   UNL     1      47.184  82.788  42.522  0.00  0.00    -0.424 OA
ATOM     16  C   UNL     1      48.205  84.172  44.335  0.00  0.00    +0.040 A 
ATOM     17  C   UNL     1      49.367  84.769  44.733  0.00  0.00    +0.015 A 
ATOM     18  C   UNL     1      50.512  84.672  43.963  0.00  0.00    +0.059 A 
ATOM     19  C   UNL     1      50.457  83.952  42.767  0.00  0.00    +0.034 A 
ATOM     20 CL   UNL     1      52.016  85.428  44.450  0.00  0.00    -0.082 Cl
ENDROOT
BRANCH   9  21
ATOM     21  C   UNL     1      43.692  77.815  40.224  0.00  0.00    +0.073 A 
ATOM     22  C   UNL     1      42.539  77.079  40.030  0.00  0.00    +0.107 A 
ATOM     23  C   UNL     1      42.145  76.244  41.054  0.00  0.00    +0.021 A 
ATOM     24  C   UNL     1      42.858  76.137  42.227  0.00  0.00    -0.003 A 
ATOM     25  C   UNL     1      44.004  76.884  42.390  0.00  0.00    -0.022 A 
ATOM     26  C   UNL     1      44.418  77.721  41.389  0.00  0.00    +0.002 A 
ATOM     27  C   UNL     1      44.781  76.768  43.665  0.00  0.00    +0.031 C 
BRANCH  22  28
ATOM     28  N   UNL     1      41.790  77.185  38.812  0.00  0.00    -0.148 N 
ATOM     29  N   UNL     1      42.196  76.683  37.656  0.00  0.00    -0.145 NA
ATOM     30  C   UNL     1      41.294  76.933  36.687  0.00  0.00    +0.145 A 
ATOM     31  C   UNL     1      40.268  77.636  37.299  0.00  0.00    +0.145 A 
ATOM     32  N   UNL     1      40.637  77.754  38.594  0.00  0.00    -0.145 NA
ENDBRANCH  22  28
ENDBRANCH   9  21
TORSDOF 2
