REMARK  Name = Symbicort
REMARK  4 active torsions:
REMARK  status: ('A' for Active; 'I' for Inactive)
REMARK    1  A    between atoms: C_2  and  C_3
REMARK    2  A    between atoms: C_3  and  C_4
REMARK    3  A    between atoms: C_23  and  C_25
REMARK    4  A    between atoms: C_25  and  C_27
REMARK                            x       y       z     vdW  Elec       q    Type
REMARK                         _______ _______ _______ _____ _____    ______ ____
ROOT
ATOM      1  C   UNL     1      44.578  77.765  41.406  0.00  0.00    +0.235 C 
ATOM      2  O   UNL     1      45.484  77.416  40.441  0.00  0.00    -0.330 OA
ATOM      3  C   UNL     1      45.855  78.579  39.771  0.00  0.00    +0.149 C 
ATOM      4  C   UNL     1      47.264  78.899  40.292  0.00  0.00    +0.033 C 
ATOM      5  C   UNL     1      46.934  79.878  41.386  0.00  0.00    +0.005 C 
ATOM      6  C   UNL     1      48.073  80.726  41.827  0.00  0.00    +0.004 C 
ATOM      7  C   UNL     1      49.074  79.864  42.560  0.00  0.00    +0.004 C 
ATOM      8  C   UNL     1      50.056  80.731  43.332  0.00  0.00    +0.022 C 
ATOM      9  C   UNL     1      49.870  82.123  42.770  0.00  0.00    -0.038 C 
ATOM     10  C   UNL     1      49.755  83.070  43.660  0.00  0.00    +0.034 C 
ATOM     11  C   UNL     1      49.573  84.457  43.260  0.00  0.00    +0.195 C 
ATOM     12  O   UNL     1      49.463  85.361  44.099  0.00  0.00    -0.287 OA
ATOM     13  C   UNL     1      49.532  84.678  41.819  0.00  0.00    +0.038 C 
ATOM     14  C   UNL     1      49.647  83.722  40.944  0.00  0.00    -0.020 C 
ATOM     15  C   UNL     1      49.827  82.324  41.316  0.00  0.00    +0.036 C 
ATOM     16  C   UNL     1      48.731  81.443  40.697  0.00  0.00    +0.038 C 
ATOM     17  C   UNL     1      47.767  82.208  39.843  0.00  0.00    +0.153 C 
ATOM     18  C   UNL     1      46.501  81.463  39.547  0.00  0.00    +0.036 C 
ATOM     19  C   UNL     1      45.910  80.735  40.707  0.00  0.00    +0.034 C 
ATOM     20  C   UNL     1      44.950  79.656  40.243  0.00  0.00    +0.173 C 
ATOM     21  O   UNL     1      44.306  79.099  41.342  0.00  0.00    -0.326 OA
ATOM     22  C   UNL     1      45.241  81.706  41.650  0.00  0.00    +0.003 C 
ATOM     23  O   UNL     1      47.462  83.431  40.433  0.00  0.00    -0.223 OA
ATOM     24  C   UNL     1      51.197  81.842  40.785  0.00  0.00    +0.009 C 
ENDROOT
BRANCH  20  25
ATOM     25  C   UNL     1      43.992  80.170  39.236  0.00  0.00    +0.210 C 
ATOM     26  O   UNL     1      43.930  81.355  38.970  0.00  0.00    -0.291 OA
BRANCH  25  27
ATOM     27  C   UNL     1      43.072  79.250  38.517  0.00  0.00    +0.248 C 
ATOM     28  O   UNL     1      42.556  79.866  37.362  0.00  0.00    -0.212 OA
ENDBRANCH  25  27
ENDBRANCH  20  25
BRANCH   1  29
ATOM     29  C   UNL     1      43.369  76.861  41.236  0.00  0.00    +0.061 C 
BRANCH  29  31
ATOM     30  C   UNL     1      42.181  75.834  39.368  0.00  0.00    +0.000 C 
ATOM     31  C   UNL     1      43.538  75.975  40.014  0.00  0.00    +0.005 C 
ENDBRANCH  29  31
ENDBRANCH   1  29
TORSDOF 4
