REMARK  Name = Tacalcitol
REMARK  6 active torsions:
REMARK  status: ('A' for Active; 'I' for Inactive)
REMARK    1  A    between atoms: C_2  and  C_4
REMARK    2  A    between atoms: C_4  and  C_5
REMARK    3  A    between atoms: C_5  and  C_6
REMARK    4  A    between atoms: C_6  and  C_7
REMARK    5  A    between atoms: C_7  and  C_9
REMARK    6  A    between atoms: C_18  and  C_19
REMARK                            x       y       z     vdW  Elec       q    Type
REMARK                         _______ _______ _______ _____ _____    ______ ____
ROOT
ATOM      1  C   UNL     1      48.107  80.884  40.510  0.00  0.00    +0.000 C 
ATOM      2  C   UNL     1      47.995  79.510  41.229  0.00  0.00    +0.000 C 
ATOM      3  C   UNL     1      47.008  78.874  40.200  0.00  0.00    +0.004 C 
ATOM      4  C   UNL     1      45.987  79.983  40.323  0.00  0.00    +0.018 C 
ATOM      5  C   UNL     1      46.735  81.282  40.140  0.00  0.00    +0.003 C 
ATOM      6  C   UNL     1      46.738  81.701  38.680  0.00  0.00    +0.001 C 
ATOM      7  C   UNL     1      45.920  80.777  37.818  0.00  0.00    +0.004 C 
ATOM      8  C   UNL     1      44.548  80.585  38.351  0.00  0.00    +0.022 C 
ATOM      9  C   UNL     1      44.700  79.842  39.684  0.00  0.00    -0.045 C 
ATOM     10  C   UNL     1      43.754  79.160  40.091  0.00  0.00    -0.009 C 
ATOM     11  C   UNL     1      45.985  82.274  40.928  0.00  0.00    +0.000 C 
ENDROOT
BRANCH  10  12
ATOM     12  C   UNL     1      42.661  78.372  40.560  0.00  0.00    -0.005 C 
ATOM     13  C   UNL     1      42.024  77.400  39.943  0.00  0.00    -0.021 C 
ATOM     14  C   UNL     1      40.854  77.775  39.032  0.00  0.00    +0.059 C 
ATOM     15  C   UNL     1      40.817  76.932  37.814  0.00  0.00    +0.159 C 
ATOM     16  C   UNL     1      40.992  75.465  37.970  0.00  0.00    +0.071 C 
ATOM     17  C   UNL     1      41.430  75.031  39.363  0.00  0.00    +0.176 C 
ATOM     18  C   UNL     1      42.465  76.051  39.833  0.00  0.00    +0.004 C 
ATOM     19  C   UNL     1      43.705  75.669  39.975  0.00  0.00    -0.002 C 
ATOM     20  O   UNL     1      40.395  74.869  40.249  0.00  0.00    -0.218 OA
ATOM     21  O   UNL     1      41.755  77.400  36.874  0.00  0.00    -0.223 OA
ENDBRANCH  10  12
BRANCH   1  22
ATOM     22  C   UNL     1      49.002  81.778  41.273  0.00  0.00    +0.000 C 
ATOM     23  C   UNL     1      50.272  82.179  40.558  0.00  0.00    +0.000 C 
BRANCH  22  24
ATOM     24  C   UNL     1      49.238  81.362  42.682  0.00  0.00    +0.003 C 
BRANCH  24  25
ATOM     25  C   UNL     1      49.500  82.556  43.590  0.00  0.00    +0.033 C 
BRANCH  25  26
ATOM     26  C   UNL     1      50.967  82.772  43.777  0.00  0.00    +0.152 C 
ATOM     27  O   UNL     1      51.653  82.843  42.581  0.00  0.00    -0.223 OA
BRANCH  26  29
ATOM     28  C   UNL     1      50.756  84.071  45.923  0.00  0.00    +0.003 C 
ATOM     29  C   UNL     1      51.191  84.084  44.495  0.00  0.00    +0.030 C 
ATOM     30  C   UNL     1      50.591  85.238  43.739  0.00  0.00    +0.003 C 
ENDBRANCH  26  29
ENDBRANCH  25  26
ENDBRANCH  24  25
ENDBRANCH  22  24
ENDBRANCH   1  22
TORSDOF 6
