REMARK  Name = Tacrolimus
REMARK  7 active torsions:
REMARK  status: ('A' for Active; 'I' for Inactive)
REMARK    1  A    between atoms: C_4  and  O_56
REMARK    2  A    between atoms: C_6  and  O_54
REMARK    3  A    between atoms: C_24  and  C_40
REMARK    4  A    between atoms: C_30  and  C_35
REMARK    5  A    between atoms: C_35  and  C_36
REMARK    6  A    between atoms: C_41  and  C_42
REMARK    7  A    between atoms: C_46  and  O_48
REMARK                            x       y       z     vdW  Elec       q    Type
REMARK                         _______ _______ _______ _____ _____    ______ ____
ROOT
ATOM      1  C   UNL     1      49.080  78.490  44.885  0.00  0.00    +0.000 C 
ATOM      2  C   UNL     1      48.976  77.707  43.603  0.00  0.00    +0.007 C 
ATOM      3  C   UNL     1      49.200  78.498  42.371  0.00  0.00    +0.032 C 
ATOM      4  C   UNL     1      49.820  79.878  42.606  0.00  0.00    +0.145 C 
ATOM      5  C   UNL     1      49.053  80.907  41.867  0.00  0.00    +0.172 C 
ATOM      6  C   UNL     1      49.210  82.294  42.429  0.00  0.00    +0.145 C 
ATOM      7  C   UNL     1      48.686  83.203  41.298  0.00  0.00    +0.038 C 
ATOM      8  C   UNL     1      47.250  82.880  41.088  0.00  0.00    +0.065 C 
ATOM      9  C   UNL     1      46.897  81.422  41.131  0.00  0.00    +0.279 C 
ATOM     10  O   UNL     1      47.689  80.643  41.912  0.00  0.00    -0.324 OA
ATOM     11  C   UNL     1      46.767  80.820  39.780  0.00  0.00    +0.279 C 
ATOM     12  O   UNL     1      47.794  80.148  39.392  0.00  0.00    -0.281 OA
ATOM     13  C   UNL     1      45.668  80.893  38.873  0.00  0.00    +0.289 C 
ATOM     14  O   UNL     1      45.950  81.316  37.682  0.00  0.00    -0.267 OA
ATOM     15  N   UNL     1      44.298  80.566  39.086  0.00  0.00    -0.265 N 
ATOM     16  C   UNL     1      43.347  81.548  38.558  0.00  0.00    +0.094 C 
ATOM     17  C   UNL     1      41.995  81.051  38.292  0.00  0.00    +0.022 C 
ATOM     18  C   UNL     1      41.764  79.595  38.592  0.00  0.00    +0.004 C 
ATOM     19  C   UNL     1      42.384  79.371  39.970  0.00  0.00    +0.031 C 
ATOM     20  C   UNL     1      43.859  79.347  39.768  0.00  0.00    +0.175 C 
ATOM     21  C   UNL     1      44.217  78.137  38.988  0.00  0.00    +0.335 C 
ATOM     22  O   UNL     1      44.496  78.266  37.769  0.00  0.00    -0.248 OA
ATOM     23  O   UNL     1      44.265  76.861  39.524  0.00  0.00    -0.447 OA
ATOM     24  C   UNL     1      44.075  76.521  40.866  0.00  0.00    +0.189 C 
ATOM     25  C   UNL     1      45.354  75.953  41.492  0.00  0.00    +0.075 C 
ATOM     26  C   UNL     1      45.370  74.465  41.410  0.00  0.00    +0.163 C 
ATOM     27  C   UNL     1      45.658  73.752  42.691  0.00  0.00    +0.098 C 
ATOM     28  C   UNL     1      46.682  74.362  43.541  0.00  0.00    +0.157 C 
ATOM     29  O   UNL     1      46.348  75.140  44.443  0.00  0.00    -0.296 OA
ATOM     30  C   UNL     1      48.120  74.112  43.397  0.00  0.00    +0.083 C 
ATOM     31  C   UNL     1      48.904  74.526  44.590  0.00  0.00    -0.027 C 
ATOM     32  C   UNL     1      49.682  75.569  44.694  0.00  0.00    -0.048 C 
ATOM     33  C   UNL     1      49.907  76.525  43.601  0.00  0.00    +0.022 C 
ATOM     34  C   UNL     1      50.419  75.852  45.987  0.00  0.00    +0.026 C 
ATOM     35  O   UNL     1      46.297  74.111  40.402  0.00  0.00    -0.223 OA
ATOM     36  C   UNL     1      46.558  76.574  40.772  0.00  0.00    +0.007 C 
ATOM     37  O   UNL     1      45.606  81.388  41.717  0.00  0.00    -0.187 OA
ATOM     38  C   UNL     1      46.840  83.511  39.756  0.00  0.00    +0.006 C 
ENDROOT
BRANCH  24  39
ATOM     39  C   UNL     1      42.944  75.558  41.020  0.00  0.00    -0.009 C 
ATOM     40  C   UNL     1      42.489  74.953  39.944  0.00  0.00    -0.031 C 
ATOM     41  C   UNL     1      42.328  75.266  42.337  0.00  0.00    +0.030 C 
BRANCH  40  42
ATOM     42  C   UNL     1      41.089  75.144  39.516  0.00  0.00    +0.024 C 
ATOM     43  C   UNL     1      40.508  73.743  39.303  0.00  0.00    +0.007 C 
ATOM     44  C   UNL     1      39.103  73.862  38.771  0.00  0.00    +0.036 C 
ATOM     45  C   UNL     1      39.167  74.548  37.423  0.00  0.00    +0.179 C 
ATOM     46  C   UNL     1      39.776  75.918  37.519  0.00  0.00    +0.146 C 
ATOM     47  C   UNL     1      41.079  75.939  38.252  0.00  0.00    +0.037 C 
ATOM     48  O   UNL     1      39.890  73.747  36.550  0.00  0.00    -0.221 OA
BRANCH  46  49
ATOM     49  O   UNL     1      38.856  76.782  38.103  0.00  0.00    -0.351 OA
ATOM     50  C   UNL     1      38.926  78.024  37.467  0.00  0.00    +0.174 C 
ENDBRANCH  46  49
ENDBRANCH  40  42
ENDBRANCH  24  39
BRANCH   6  51
ATOM     51  O   UNL     1      50.486  82.646  42.779  0.00  0.00    -0.351 OA
ATOM     52  C   UNL     1      51.020  83.450  41.775  0.00  0.00    +0.174 C 
ENDBRANCH   6  51
BRANCH   4  53
ATOM     53  O   UNL     1      51.094  79.781  42.058  0.00  0.00    -0.351 OA
ATOM     54  C   UNL     1      52.107  80.328  42.785  0.00  0.00    +0.174 C 
ENDBRANCH   4  53
BRANCH  30  55
ATOM     55  C   UNL     1      48.320  72.593  43.294  0.00  0.00    +0.038 C 
BRANCH  55  56
ATOM     56  C   UNL     1      49.748  72.294  42.966  0.00  0.00    -0.025 C 
ATOM     57  C   UNL     1      50.663  72.341  43.927  0.00  0.00    -0.005 C 
ENDBRANCH  55  56
ENDBRANCH  30  55
TORSDOF 7
