REMARK  Name = Tadalafil
REMARK  1 active torsions:
REMARK  status: ('A' for Active; 'I' for Inactive)
REMARK    1  A    between atoms: C_13  and  C_14
REMARK                            x       y       z     vdW  Elec       q    Type
REMARK                         _______ _______ _______ _____ _____    ______ ____
ROOT
ATOM      1  C   UNL     1      43.331  79.635  36.047  0.00  0.00    +0.115 C 
ATOM      2  N   UNL     1      43.854  79.836  37.389  0.00  0.00    -0.268 N 
ATOM      3  C   UNL     1      44.096  81.183  37.827  0.00  0.00    +0.179 C 
ATOM      4  C   UNL     1      44.843  81.240  39.106  0.00  0.00    +0.247 C 
ATOM      5  O   UNL     1      45.579  82.242  39.337  0.00  0.00    -0.273 OA
ATOM      6  N   UNL     1      44.777  80.220  40.099  0.00  0.00    -0.264 N 
ATOM      7  C   UNL     1      44.277  78.918  39.713  0.00  0.00    +0.157 C 
ATOM      8  C   UNL     1      44.129  78.776  38.264  0.00  0.00    +0.244 C 
ATOM      9  O   UNL     1      44.260  77.611  37.771  0.00  0.00    -0.273 OA
ATOM     10  C   UNL     1      45.271  77.869  40.198  0.00  0.00    +0.057 C 
ATOM     11  C   UNL     1      45.348  78.042  41.672  0.00  0.00    -0.003 A 
ATOM     12  C   UNL     1      45.316  79.297  42.238  0.00  0.00    +0.077 A 
ATOM     13  C   UNL     1      45.206  80.537  41.424  0.00  0.00    +0.138 C 
ATOM     14  N   UNL     1      45.401  79.155  43.572  0.00  0.00    -0.248 NA
ATOM     15  C   UNL     1      45.489  77.846  43.908  0.00  0.00    +0.081 A 
ATOM     16  C   UNL     1      45.594  77.175  45.114  0.00  0.00    +0.019 A 
ATOM     17  C   UNL     1      45.667  75.801  45.156  0.00  0.00    +0.002 A 
ATOM     18  C   UNL     1      45.634  75.108  43.965  0.00  0.00    +0.000 A 
ATOM     19  C   UNL     1      45.529  75.766  42.758  0.00  0.00    +0.001 A 
ATOM     20  C   UNL     1      45.455  77.159  42.713  0.00  0.00    +0.015 A 
ENDROOT
BRANCH  13  21
ATOM     21  C   UNL     1      46.499  81.272  41.450  0.00  0.00    +0.005 A 
ATOM     22  C   UNL     1      46.690  82.454  42.128  0.00  0.00    +0.038 A 
ATOM     23  C   UNL     1      47.922  83.109  42.126  0.00  0.00    +0.176 A 
ATOM     24  C   UNL     1      49.000  82.590  41.436  0.00  0.00    +0.176 A 
ATOM     25  C   UNL     1      48.810  81.408  40.757  0.00  0.00    +0.040 A 
ATOM     26  C   UNL     1      47.598  80.774  40.766  0.00  0.00    +0.001 A 
ATOM     27  O   UNL     1      50.124  83.429  41.585  0.00  0.00    -0.435 OA
ATOM     28  C   UNL     1      49.764  84.414  42.537  0.00  0.00    +0.429 C 
ATOM     29  O   UNL     1      48.375  84.286  42.713  0.00  0.00    -0.435 OA
ENDBRANCH  13  21
TORSDOF 1
