REMARK  Name = Tafamidis_meglumine
REMARK  8 active torsions:
REMARK  status: ('A' for Active; 'I' for Inactive)
REMARK    1  A    between atoms: N_2  and  C_3
REMARK    2  A    between atoms: C_3  and  C_4
REMARK    3  A    between atoms: C_4  and  C_5
REMARK    4  A    between atoms: C_5  and  C_6
REMARK    5  A    between atoms: C_6  and  C_7
REMARK    6  A    between atoms: C_7  and  C_8
REMARK    7  A    between atoms: C_19  and  C_20
REMARK    8  A    between atoms: C_24  and  C_26
REMARK                            x       y       z     vdW  Elec       q    Type
REMARK                         _______ _______ _______ _____ _____    ______ ____
ROOT
ATOM      1  C   UNL     1      46.225  80.427  40.856  0.00  0.00    +0.216 C 
ATOM      2  O   UNL     1      45.262  80.896  41.741  0.00  0.00    -0.218 OA
ENDROOT
BRANCH   1   3
ATOM      3  C   UNL     1      45.561  80.114  39.531  0.00  0.00    +0.202 C 
ATOM      4  O   UNL     1      45.410  81.309  38.820  0.00  0.00    -0.219 OA
BRANCH   3   5
ATOM      5  C   UNL     1      44.165  79.601  39.820  0.00  0.00    +0.124 C 
BRANCH   5   7
ATOM      6  C   UNL     1      42.644  78.069  38.752  0.00  0.00    +0.108 C 
ATOM      7  N   UNL     1      43.633  79.086  38.575  0.00  0.00    -0.214 NA
ENDBRANCH   5   7
ENDBRANCH   3   5
ENDBRANCH   1   3
BRANCH   1   8
ATOM      8  C   UNL     1      47.321  81.471  40.665  0.00  0.00    +0.217 C 
ATOM      9  O   UNL     1      48.505  80.815  40.363  0.00  0.00    -0.217 OA
BRANCH   8  10
ATOM     10  C   UNL     1      47.518  82.160  42.001  0.00  0.00    +0.217 C 
ATOM     11  O   UNL     1      46.313  82.807  42.313  0.00  0.00    -0.217 OA
BRANCH  10  12
ATOM     12  C   UNL     1      48.642  83.174  41.903  0.00  0.00    +0.217 C 
ATOM     13  O   UNL     1      48.840  83.794  43.116  0.00  0.00    -0.217 OA
ENDBRANCH  10  12
ENDBRANCH   8  10
ENDBRANCH   1   8
TORSDOF 6
REMARK  Name = Tafamidis_meglumine
REMARK  8 active torsions:
REMARK  status: ('A' for Active; 'I' for Inactive)
REMARK    1  A    between atoms: N_2  and  C_3
REMARK    2  A    between atoms: C_3  and  C_4
REMARK    3  A    between atoms: C_4  and  C_5
REMARK    4  A    between atoms: C_5  and  C_6
REMARK    5  A    between atoms: C_6  and  C_7
REMARK    6  A    between atoms: C_7  and  C_8
REMARK    7  A    between atoms: C_19  and  C_20
REMARK    8  A    between atoms: C_24  and  C_26
REMARK                            x       y       z     vdW  Elec       q    Type
REMARK                         _______ _______ _______ _____ _____    ______ ____
ROOT
ATOM      1  C   UNL     1      43.244  79.501  38.517  0.00  0.00    +0.008 A 
ATOM      2  C   UNL     1      43.972  80.666  38.570  0.00  0.00    +0.023 A 
ATOM      3  C   UNL     1      45.014  80.778  39.464  0.00  0.00    +0.119 A 
ATOM      4  C   UNL     1      45.339  79.716  40.318  0.00  0.00    +0.165 A 
ATOM      5  C   UNL     1      44.594  78.555  40.247  0.00  0.00    +0.046 A 
ATOM      6  C   UNL     1      43.545  78.436  39.350  0.00  0.00    +0.083 A 
ATOM      7  O   UNL     1      46.374  80.087  41.070  0.00  0.00    -0.435 OA
ATOM      8  C   UNL     1      46.729  81.308  40.754  0.00  0.00    +0.230 A 
ATOM      9  N   UNL     1      45.907  81.735  39.779  0.00  0.00    -0.208 NA
ENDROOT
BRANCH   8  10
ATOM     10  C   UNL     1      47.823  82.066  41.356  0.00  0.00    +0.055 A 
ATOM     11  C   UNL     1      49.129  81.684  41.132  0.00  0.00    +0.016 A 
ATOM     12  C   UNL     1      50.184  82.388  41.693  0.00  0.00    +0.059 A 
ATOM     13  C   UNL     1      49.891  83.477  42.480  0.00  0.00    +0.023 A 
ATOM     14  C   UNL     1      48.601  83.900  42.736  0.00  0.00    +0.059 A 
ATOM     15  C   UNL     1      47.584  83.166  42.154  0.00  0.00    +0.016 A 
ATOM     16 CL   UNL     1      48.270  85.295  43.746  0.00  0.00    -0.082 Cl
ATOM     17 CL   UNL     1      51.832  81.877  41.387  0.00  0.00    -0.082 Cl
ENDBRANCH   8  10
BRANCH   6  18
ATOM     18  C   UNL     1      42.793  77.185  39.319  0.00  0.00    +0.388 C 
ATOM     19  O   UNL     1      43.017  76.250  40.124  0.00  0.00    -0.241 OA
ATOM     20  O   UNL     1      41.803  77.073  38.344  0.00  0.00    -0.241 OA
ENDBRANCH   6  18
TORSDOF 2
