REMARK  Name = Tafenoquine
REMARK  10 active torsions:
REMARK  status: ('A' for Active; 'I' for Inactive)
REMARK    1  A    between atoms: C_4  and  O_32
REMARK    2  A    between atoms: C_8  and  O_21
REMARK    3  A    between atoms: C_9  and  O_19
REMARK    4  A    between atoms: C_11  and  N_12
REMARK    5  A    between atoms: N_12  and  C_13
REMARK    6  A    between atoms: C_13  and  C_15
REMARK    7  A    between atoms: C_15  and  C_16
REMARK    8  A    between atoms: C_16  and  C_17
REMARK    9  A    between atoms: O_21  and  C_22
REMARK   10  A    between atoms: C_26  and  C_28
REMARK                            x       y       z     vdW  Elec       q    Type
REMARK                         _______ _______ _______ _____ _____    ______ ____
ROOT
ATOM      1  C   UNL     1      46.655  78.924  43.703  0.00  0.00    +0.031 C 
ATOM      2  C   UNL     1      45.712  78.275  42.767  0.00  0.00    -0.013 A 
ATOM      3  C   UNL     1      45.284  76.954  42.979  0.00  0.00    +0.054 A 
ATOM      4  C   UNL     1      44.468  76.272  42.135  0.00  0.00    +0.225 A 
ATOM      5  N   UNL     1      44.033  76.885  41.017  0.00  0.00    -0.210 NA
ATOM      6  C   UNL     1      44.415  78.151  40.768  0.00  0.00    +0.102 A 
ATOM      7  C   UNL     1      45.247  78.878  41.613  0.00  0.00    +0.053 A 
ATOM      8  C   UNL     1      45.591  80.155  41.254  0.00  0.00    +0.180 A 
ATOM      9  C   UNL     1      45.158  80.754  40.090  0.00  0.00    +0.174 A 
ATOM     10  C   UNL     1      44.334  80.006  39.268  0.00  0.00    +0.058 A 
ATOM     11  C   UNL     1      43.952  78.724  39.576  0.00  0.00    +0.086 A 
ENDROOT
BRANCH   9  12
ATOM     12  O   UNL     1      45.529  82.046  39.756  0.00  0.00    -0.468 OA
ATOM     13  C   UNL     1      45.538  82.396  38.386  0.00  0.00    +0.253 C 
ENDBRANCH   9  12
BRANCH   4  14
ATOM     14  O   UNL     1      44.115  74.964  42.460  0.00  0.00    -0.456 OA
ATOM     15  C   UNL     1      42.813  74.543  42.130  0.00  0.00    +0.254 C 
ENDBRANCH   4  14
BRANCH  11  16
ATOM     16  N   UNL     1      43.101  77.978  38.727  0.00  0.00    -0.238 NA
BRANCH  16  17
ATOM     17  C   UNL     1      42.438  78.598  37.626  0.00  0.00    +0.093 C 
ATOM     18  C   UNL     1      42.986  78.283  36.276  0.00  0.00    +0.023 C 
BRANCH  17  19
ATOM     19  C   UNL     1      40.949  78.298  37.602  0.00  0.00    +0.023 C 
BRANCH  19  20
ATOM     20  C   UNL     1      40.575  77.139  38.479  0.00  0.00    +0.022 C 
BRANCH  20  21
ATOM     21  C   UNL     1      39.471  76.303  37.842  0.00  0.00    +0.109 C 
ATOM     22  N   UNL     1      38.228  76.601  38.522  0.00  0.00    -0.131 NA
ENDBRANCH  20  21
ENDBRANCH  19  20
ENDBRANCH  17  19
ENDBRANCH  16  17
ENDBRANCH  11  16
BRANCH   8  23
ATOM     23  O   UNL     1      46.406  80.904  42.102  0.00  0.00    -0.450 OA
BRANCH  23  24
ATOM     24  C   UNL     1      47.727  81.205  41.709  0.00  0.00    +0.145 A 
ATOM     25  C   UNL     1      48.452  80.438  40.857  0.00  0.00    +0.037 A 
ATOM     26  C   UNL     1      49.734  80.801  40.520  0.00  0.00    +0.003 A 
ATOM     27  C   UNL     1      50.312  81.950  41.038  0.00  0.00    +0.004 A 
ATOM     28  C   UNL     1      49.606  82.755  41.908  0.00  0.00    +0.074 A 
ATOM     29  C   UNL     1      48.330  82.362  42.222  0.00  0.00    +0.041 A 
BRANCH  28  30
ATOM     30  C   UNL     1      50.217  83.992  42.472  0.00  0.00    +0.419 C 
ATOM     31  F   UNL     1      50.902  84.595  41.420  0.00  0.00    -0.166 F 
ATOM     32  F   UNL     1      49.288  84.834  43.004  0.00  0.00    -0.166 F 
ATOM     33  F   UNL     1      51.134  83.614  43.448  0.00  0.00    -0.166 F 
ENDBRANCH  28  30
ENDBRANCH  23  24
ENDBRANCH   8  23
TORSDOF 10
