REMARK  Name = Tafluprost
REMARK  13 active torsions:
REMARK  status: ('A' for Active; 'I' for Inactive)
REMARK    1  A    between atoms: C_2  and  O_4
REMARK    2  A    between atoms: O_4  and  C_5
REMARK    3  A    between atoms: C_5  and  C_7
REMARK    4  A    between atoms: C_7  and  C_8
REMARK    5  A    between atoms: C_8  and  C_9
REMARK    6  A    between atoms: C_9  and  C_10
REMARK    7  A    between atoms: C_11  and  C_12
REMARK    8  A    between atoms: C_12  and  C_13
REMARK    9  A    between atoms: C_17  and  C_18
REMARK   10  A    between atoms: C_19  and  C_20
REMARK   11  A    between atoms: C_20  and  C_21
REMARK   12  A    between atoms: C_21  and  O_22
REMARK   13  A    between atoms: O_22  and  C_23
REMARK                            x       y       z     vdW  Elec       q    Type
REMARK                         _______ _______ _______ _____ _____    ______ ____
ROOT
ATOM      1  C   UNL     1      48.953  83.712  42.527  0.00  0.00    +0.041 C 
ATOM      2  C   UNL     1      50.476  83.879  42.854  0.00  0.00    +0.155 C 
ATOM      3  C   UNL     1      51.025  83.889  41.443  0.00  0.00    +0.066 C 
ATOM      4  C   UNL     1      50.328  82.710  40.847  0.00  0.00    +0.159 C 
ATOM      5  C   UNL     1      49.061  82.481  41.682  0.00  0.00    +0.055 C 
ATOM      6  O   UNL     1      51.180  81.608  40.887  0.00  0.00    -0.223 OA
ATOM      7  O   UNL     1      50.876  82.722  43.475  0.00  0.00    -0.223 OA
ENDROOT
BRANCH   5   8
ATOM      8  C   UNL     1      47.895  82.313  40.808  0.00  0.00    -0.023 C 
ATOM      9  C   UNL     1      47.087  81.303  40.695  0.00  0.00    +0.038 C 
BRANCH   9  10
ATOM     10  C   UNL     1      45.888  81.228  39.779  0.00  0.00    +0.322 C 
ATOM     11  F   UNL     1      46.286  81.659  38.563  0.00  0.00    -0.196 F 
ATOM     12  F   UNL     1      44.877  82.093  40.191  0.00  0.00    -0.196 F 
BRANCH  10  13
ATOM     13  C   UNL     1      45.414  79.799  39.874  0.00  0.00    +0.276 C 
BRANCH  13  14
ATOM     14  O   UNL     1      44.101  79.623  39.628  0.00  0.00    -0.469 OA
BRANCH  14  15
ATOM     15  C   UNL     1      43.306  78.583  39.395  0.00  0.00    +0.139 A 
ATOM     16  C   UNL     1      42.503  78.451  38.296  0.00  0.00    +0.037 A 
ATOM     17  C   UNL     1      41.679  77.332  38.074  0.00  0.00    +0.003 A 
ATOM     18  C   UNL     1      41.682  76.326  39.011  0.00  0.00    +0.000 A 
ATOM     19  C   UNL     1      42.481  76.440  40.124  0.00  0.00    +0.003 A 
ATOM     20  C   UNL     1      43.282  77.520  40.344  0.00  0.00    +0.037 A 
ENDBRANCH  14  15
ENDBRANCH  13  14
ENDBRANCH  10  13
ENDBRANCH   9  10
ENDBRANCH   5   8
BRANCH   1  21
ATOM     21  C   UNL     1      48.217  83.577  43.826  0.00  0.00    +0.029 C 
BRANCH  21  23
ATOM     22  C   UNL     1      49.900  82.469  45.263  0.00  0.00    -0.031 C 
ATOM     23  C   UNL     1      48.743  82.468  44.622  0.00  0.00    -0.031 C 
BRANCH  22  24
ATOM     24  C   UNL     1      50.383  81.400  46.157  0.00  0.00    +0.026 C 
BRANCH  24  25
ATOM     25  C   UNL     1      51.864  81.616  46.493  0.00  0.00    +0.016 C 
BRANCH  25  26
ATOM     26  C   UNL     1      51.980  81.524  47.987  0.00  0.00    +0.110 C 
BRANCH  26  27
ATOM     27  C   UNL     1      53.328  81.813  48.487  0.00  0.00    +0.317 C 
ATOM     28  O   UNL     1      54.240  82.141  47.672  0.00  0.00    -0.250 OA
BRANCH  27  29
ATOM     29  O   UNL     1      53.706  81.756  49.822  0.00  0.00    -0.452 OA
BRANCH  29  31
ATOM     30  C   UNL     1      55.144  83.363  50.938  0.00  0.00    +0.047 C 
ATOM     31  C   UNL     1      54.995  82.030  50.270  0.00  0.00    +0.169 C 
ATOM     32  C   UNL     1      55.342  80.962  51.318  0.00  0.00    +0.047 C 
ENDBRANCH  29  31
ENDBRANCH  27  29
ENDBRANCH  26  27
ENDBRANCH  25  26
ENDBRANCH  24  25
ENDBRANCH  22  24
ENDBRANCH  21  23
ENDBRANCH   1  21
TORSDOF 13
