REMARK  Name = Talazoparib
REMARK  2 active torsions:
REMARK  status: ('A' for Active; 'I' for Inactive)
REMARK    1  A    between atoms: C_3  and  C_7
REMARK    2  A    between atoms: C_8  and  C_22
REMARK                            x       y       z     vdW  Elec       q    Type
REMARK                         _______ _______ _______ _____ _____    ______ ____
ROOT
ATOM      1  C   UNL     1      48.066  82.125  40.559  0.00  0.00    +0.124 C 
ATOM      2  C   UNL     1      47.266  82.801  41.608  0.00  0.00    +0.127 C 
ATOM      3  N   UNL     1      46.145  82.003  42.083  0.00  0.00    -0.234 NA
ATOM      4  C   UNL     1      45.552  80.967  41.349  0.00  0.00    +0.069 A 
ATOM      5  C   UNL     1      44.334  80.393  41.708  0.00  0.00    +0.046 A 
ATOM      6  C   UNL     1      43.758  79.370  40.983  0.00  0.00    +0.142 A 
ATOM      7  C   UNL     1      44.389  78.874  39.853  0.00  0.00    +0.035 A 
ATOM      8  C   UNL     1      45.586  79.446  39.510  0.00  0.00    +0.064 A 
ATOM      9  C   UNL     1      46.183  80.483  40.233  0.00  0.00    +0.035 A 
ATOM     10  C   UNL     1      47.377  81.018  39.855  0.00  0.00    +0.091 A 
ATOM     11  N   UNL     1      47.979  80.524  38.759  0.00  0.00    -0.149 NA
ATOM     12  N   UNL     1      47.425  79.545  38.068  0.00  0.00    -0.106 NA
ATOM     13  C   UNL     1      46.251  78.985  38.400  0.00  0.00    +0.297 A 
ATOM     14  O   UNL     1      45.755  78.038  37.697  0.00  0.00    -0.264 OA
ATOM     15  F   UNL     1      42.569  78.876  41.410  0.00  0.00    -0.204 F 
ENDROOT
BRANCH   2  16
ATOM     16  C   UNL     1      48.035  83.389  42.729  0.00  0.00    -0.002 A 
ATOM     17  C   UNL     1      48.269  82.696  43.892  0.00  0.00    -0.000 A 
ATOM     18  C   UNL     1      49.002  83.252  44.942  0.00  0.00    +0.029 A 
ATOM     19  C   UNL     1      49.520  84.524  44.848  0.00  0.00    +0.140 A 
ATOM     20  C   UNL     1      49.288  85.224  43.685  0.00  0.00    +0.029 A 
ATOM     21  C   UNL     1      48.562  84.662  42.657  0.00  0.00    -0.000 A 
ATOM     22  F   UNL     1      50.242  85.073  45.881  0.00  0.00    -0.204 F 
ENDBRANCH   2  16
BRANCH   1  25
ATOM     23  C   UNL     1      50.801  83.541  39.817  0.00  0.00    +0.155 C 
ATOM     24  N   UNL     1      50.581  82.350  40.605  0.00  0.00    -0.234 N 
ATOM     25  C   UNL     1      49.442  81.743  40.939  0.00  0.00    +0.145 A 
ATOM     26  N   UNL     1      49.801  80.688  41.693  0.00  0.00    -0.208 NA
ATOM     27  C   UNL     1      51.118  80.651  41.816  0.00  0.00    +0.221 A 
ATOM     28  N   UNL     1      51.625  81.690  41.137  0.00  0.00    -0.145 NA
ENDBRANCH   1  25
TORSDOF 2
