REMARK  Name = Talaporfin
REMARK  12 active torsions:
REMARK  status: ('A' for Active; 'I' for Inactive)
REMARK    1  A    between atoms: C_2  and  C_3
REMARK    2  A    between atoms: C_8  and  C_50
REMARK    3  A    between atoms: C_15  and  C_43
REMARK    4  A    between atoms: C_18  and  C_31
REMARK    5  A    between atoms: C_20  and  C_28
REMARK    6  A    between atoms: C_31  and  C_32
REMARK    7  A    between atoms: N_34  and  CA_35
REMARK    8  A    between atoms: CA_35  and  CB_36
REMARK    9  A    between atoms: CA_35  and  C_40
REMARK   10  A    between atoms: CB_36  and  CG_37
REMARK   11  A    between atoms: C_43  and  C_44
REMARK   12  A    between atoms: C_44  and  C_45
REMARK                            x       y       z     vdW  Elec       q    Type
REMARK                         _______ _______ _______ _____ _____    ______ ____
ROOT
ATOM      1  C   UNK A   0      43.208  77.693  38.862  0.00  0.00    -0.007 A 
ATOM      2  C   UNK A   0      43.452  78.856  38.170  0.00  0.00    -0.007 A 
ATOM      3  C   UNK A   0      43.724  79.838  39.117  0.00  0.00    +0.079 A 
ATOM      4  C   UNK A   0      44.198  81.133  38.757  0.00  0.00    +0.038 C 
ATOM      5  C   UNK A   0      45.402  81.725  39.271  0.00  0.00    +0.082 A 
ATOM      6  C   UNK A   0      46.337  82.414  38.449  0.00  0.00    +0.015 A 
ATOM      7  C   UNK A   0      47.408  82.684  39.272  0.00  0.00    -0.003 A 
ATOM      8  C   UNK A   0      47.098  82.163  40.545  0.00  0.00    +0.079 A 
ATOM      9  N   UNK A   0      45.883  81.602  40.513  0.00  0.00    -0.246 NA
ATOM     10  C   UNK A   0      48.035  82.188  41.598  0.00  0.00    +0.033 C 
ATOM     11  C   UNK A   0      48.340  81.107  42.427  0.00  0.00    +0.060 C 
ATOM     12  C   UNK A   0      49.404  80.780  43.433  0.00  0.00    +0.046 C 
ATOM     13  C   UNK A   0      49.079  79.386  43.769  0.00  0.00    +0.046 C 
ATOM     14  C   UNK A   0      47.616  79.287  43.493  0.00  0.00    +0.057 C 
ATOM     15  N   UNK A   0      47.491  80.026  42.340  0.00  0.00    -0.254 NA
ATOM     16  C   UNK A   0      46.599  78.664  44.134  0.00  0.00    +0.018 C 
ATOM     17  C   UNK A   0      45.725  77.718  43.586  0.00  0.00    +0.085 C 
ATOM     18  C   UNK A   0      45.373  76.345  44.059  0.00  0.00    +0.095 C 
ATOM     19  C   UNK A   0      44.433  75.865  43.272  0.00  0.00    +0.004 C 
ATOM     20  C   UNK A   0      44.154  76.875  42.288  0.00  0.00    +0.079 C 
ATOM     21  N   UNK A   0      44.948  77.969  42.507  0.00  0.00    -0.246 NA
ATOM     22  C   UNK A   0      43.269  77.005  41.198  0.00  0.00    +0.038 C 
ATOM     23  C   UNK A   0      43.340  78.014  40.218  0.00  0.00    +0.079 A 
ATOM     24  N   UNK A   0      43.642  79.318  40.360  0.00  0.00    -0.246 NA
ATOM     25  C   UNK A   0      43.797  74.547  43.385  0.00  0.00    +0.033 C 
ATOM     26  C   UNK A   0      50.702  81.095  42.769  0.00  0.00    +0.007 C 
ATOM     27  C   UNK A   0      48.663  83.417  38.852  0.00  0.00    +0.033 C 
ATOM     28  C   UNK A   0      43.398  78.983  36.659  0.00  0.00    +0.032 C 
ENDROOT
BRANCH  18  29
ATOM     29  C   UNK A   0      46.008  75.708  45.202  0.00  0.00    +0.389 C 
ATOM     30  O   UNK A   0      45.617  74.724  45.833  0.00  0.00    -0.241 OA
ATOM     31  O   UNK A   0      47.210  76.282  45.638  0.00  0.00    -0.241 OA
ENDBRANCH  18  29
BRANCH   1  33
ATOM     32  C   UNK A   0      41.459  75.978  38.671  0.00  0.00    +0.005 C 
ATOM     33  C   UNK A   0      42.855  76.373  38.217  0.00  0.00    +0.028 C 
ENDBRANCH   1  33
BRANCH   6  34
ATOM     34  C   UNK A   0      46.134  82.746  37.045  0.00  0.00    +0.001 C 
ATOM     35  C   UNK A   0      46.897  82.400  36.079  0.00  0.00    +0.000 C 
ENDBRANCH   6  34
BRANCH  16  36
ATOM     36  C   UNK A   0      46.333  78.960  45.579  0.00  0.00    +0.116 C 
BRANCH  36  37
ATOM     37  C   UNK A   0      47.553  78.515  46.339  0.00  0.00    +0.246 C 
ATOM     38  O   UNK A   0      48.455  79.324  46.656  0.00  0.00    -0.273 OA
ATOM     39  N   ASP A   1      47.694  77.159  46.710  0.00  0.00    -0.195 NA
BRANCH  39  40
ATOM     40  CA  ASP A   1      48.895  76.726  47.464  0.00  0.00    +0.209 C 
BRANCH  40  41
ATOM     41  C   ASP A   1      49.776  76.058  46.461  0.00  0.00    +0.385 C 
ATOM     42  O   ASP A   1      49.456  76.182  45.237  0.00  0.00    -0.244 OA
ATOM     43  OXT ASP A   1      50.893  75.326  46.735  0.00  0.00    -0.244 OA
ENDBRANCH  40  41
BRANCH  40  44
ATOM     44  CB  ASP A   1      49.608  77.939  47.977  0.00  0.00    +0.147 C 
BRANCH  44  45
ATOM     45  CG  ASP A   1      50.641  77.614  48.949  0.00  0.00    +0.367 C 
ATOM     46  OD1 ASP A   1      50.795  76.422  49.341  0.00  0.00    -0.246 OA
ATOM     47  OD2 ASP A   1      51.470  78.612  49.456  0.00  0.00    -0.246 OA
ENDBRANCH  44  45
ENDBRANCH  40  44
ENDBRANCH  39  40
ENDBRANCH  36  37
ENDBRANCH  16  36
BRANCH  13  48
ATOM     48  C   UNK A   0      49.583  78.772  44.986  0.00  0.00    +0.018 C 
BRANCH  48  49
ATOM     49  C   UNK A   0      49.942  79.768  46.060  0.00  0.00    +0.114 C 
BRANCH  49  50
ATOM     50  C   UNK A   0      50.966  80.764  45.617  0.00  0.00    +0.365 C 
ATOM     51  O   UNK A   0      51.923  80.425  44.924  0.00  0.00    -0.246 OA
ATOM     52  O   UNK A   0      50.861  82.107  45.982  0.00  0.00    -0.246 OA
ENDBRANCH  49  50
ENDBRANCH  48  49
ENDBRANCH  13  48
TORSDOF 12
