REMARK  Name = Talbutal
REMARK  4 active torsions:
REMARK  status: ('A' for Active; 'I' for Inactive)
REMARK    1  A    between atoms: C_2  and  C_3
REMARK    2  A    between atoms: C_3  and  C_5
REMARK    3  A    between atoms: C_5  and  C_14
REMARK    4  A    between atoms: C_14  and  C_15
REMARK                            x       y       z     vdW  Elec       q    Type
REMARK                         _______ _______ _______ _____ _____    ______ ____
ROOT
ATOM      1  C   UNL     1      47.857  82.192  41.223  0.00  0.00    +0.145 C 
ATOM      2  C   UNL     1      47.739  83.161  40.103  0.00  0.00    +0.257 C 
ATOM      3  O   UNL     1      48.233  84.315  40.192  0.00  0.00    -0.272 OA
ATOM      4  N   UNL     1      47.068  82.837  38.888  0.00  0.00    -0.125 NA
ATOM      5  C   UNL     1      46.184  81.746  38.868  0.00  0.00    +0.352 C 
ATOM      6  O   UNL     1      45.562  81.413  37.817  0.00  0.00    -0.248 OA
ATOM      7  N   UNL     1      45.973  80.989  40.046  0.00  0.00    -0.125 NA
ATOM      8  C   UNL     1      46.655  81.339  41.236  0.00  0.00    +0.257 C 
ATOM      9  O   UNL     1      46.241  80.919  42.363  0.00  0.00    -0.272 OA
ENDROOT
BRANCH   1  10
ATOM     10  C   UNL     1      49.078  81.330  41.067  0.00  0.00    +0.017 C 
ATOM     11  C   UNL     1      48.947  80.414  39.865  0.00  0.00    +0.001 C 
BRANCH  10  13
ATOM     12  C   UNL     1      50.584  81.044  42.967  0.00  0.00    +0.000 C 
ATOM     13  C   UNL     1      49.350  80.466  42.264  0.00  0.00    +0.001 C 
ENDBRANCH  10  13
ENDBRANCH   1  10
BRANCH   1  14
ATOM     14  C   UNL     1      47.944  82.991  42.503  0.00  0.00    +0.044 C 
BRANCH  14  15
ATOM     15  C   UNL     1      47.460  84.380  42.322  0.00  0.00    -0.025 C 
ATOM     16  C   UNL     1      47.309  85.141  43.386  0.00  0.00    -0.005 C 
ENDBRANCH  14  15
ENDBRANCH   1  14
TORSDOF 4
