REMARK  Name = Tamoxifen
REMARK  8 active torsions:
REMARK  status: ('A' for Active; 'I' for Inactive)
REMARK    1  A    between atoms: C_2  and  C_3
REMARK    2  A    between atoms: C_3  and  C_23
REMARK    3  A    between atoms: C_4  and  C_5
REMARK    4  A    between atoms: C_4  and  C_11
REMARK    5  A    between atoms: C_14  and  O_17
REMARK    6  A    between atoms: O_17  and  C_18
REMARK    7  A    between atoms: C_18  and  C_19
REMARK    8  A    between atoms: C_19  and  N_20
REMARK                            x       y       z     vdW  Elec       q    Type
REMARK                         _______ _______ _______ _____ _____    ______ ____
ROOT
ATOM      1  C   UNL     1      48.446  82.201  42.303  0.00  0.00    -0.022 C 
ATOM      2  C   UNL     1      48.234  81.072  41.662  0.00  0.00    -0.004 C 
ENDROOT
BRANCH   2   3
ATOM      3  C   UNL     1      49.262  80.040  41.642  0.00  0.00    -0.000 A 
ATOM      4  C   UNL     1      49.985  79.714  42.778  0.00  0.00    -0.000 A 
ATOM      5  C   UNL     1      50.968  78.773  42.745  0.00  0.00    -0.000 A 
ATOM      6  C   UNL     1      51.248  78.128  41.545  0.00  0.00    -0.000 A 
ATOM      7  C   UNL     1      50.535  78.447  40.413  0.00  0.00    -0.000 A 
ATOM      8  C   UNL     1      49.539  79.404  40.456  0.00  0.00    -0.000 A 
ENDBRANCH   2   3
BRANCH   2   9
ATOM      9  C   UNL     1      47.031  80.766  40.884  0.00  0.00    -0.000 A 
ATOM     10  C   UNL     1      46.239  79.683  41.275  0.00  0.00    +0.003 A 
ATOM     11  C   UNL     1      45.128  79.330  40.567  0.00  0.00    +0.037 A 
ATOM     12  C   UNL     1      44.737  80.020  39.440  0.00  0.00    +0.139 A 
ATOM     13  C   UNL     1      45.512  81.092  39.043  0.00  0.00    +0.037 A 
ATOM     14  C   UNL     1      46.651  81.455  39.767  0.00  0.00    +0.003 A 
BRANCH  12  15
ATOM     15  O   UNL     1      43.613  79.599  38.792  0.00  0.00    -0.474 OA
BRANCH  15  16
ATOM     16  C   UNL     1      42.841  78.471  39.069  0.00  0.00    +0.223 C 
BRANCH  16  17
ATOM     17  C   UNL     1      41.426  78.597  38.555  0.00  0.00    +0.120 C 
BRANCH  17  18
ATOM     18  N   UNL     1      40.835  77.434  38.072  0.00  0.00    -0.267 NA
ATOM     19  C   UNL     1      40.046  76.654  38.943  0.00  0.00    +0.090 C 
ATOM     20  C   UNL     1      40.979  77.032  36.749  0.00  0.00    +0.090 C 
ENDBRANCH  17  18
ENDBRANCH  16  17
ENDBRANCH  15  16
ENDBRANCH  12  15
ENDBRANCH   2   9
BRANCH   1  21
ATOM     21  C   UNL     1      49.810  82.673  42.463  0.00  0.00    -0.004 A 
ATOM     22  C   UNL     1      50.407  82.942  43.667  0.00  0.00    -0.000 A 
ATOM     23  C   UNL     1      51.708  83.435  43.785  0.00  0.00    -0.000 A 
ATOM     24  C   UNL     1      52.456  83.674  42.664  0.00  0.00    -0.000 A 
ATOM     25  C   UNL     1      51.887  83.415  41.438  0.00  0.00    -0.000 A 
ATOM     26  C   UNL     1      50.602  82.929  41.335  0.00  0.00    -0.000 A 
ENDBRANCH   1  21
BRANCH   1  28
ATOM     27  C   UNL     1      47.470  84.522  42.410  0.00  0.00    +0.005 C 
ATOM     28  C   UNL     1      47.323  83.063  42.775  0.00  0.00    +0.026 C 
ENDBRANCH   1  28
TORSDOF 8
