REMARK  Name = Tandospirone
REMARK  5 active torsions:
REMARK  status: ('A' for Active; 'I' for Inactive)
REMARK    1  A    between atoms: N_10  and  C_13
REMARK    2  A    between atoms: C_13  and  C_14
REMARK    3  A    between atoms: C_14  and  C_15
REMARK    4  A    between atoms: C_15  and  C_16
REMARK    5  A    between atoms: C_16  and  N_17
REMARK                            x       y       z     vdW  Elec       q    Type
REMARK                         _______ _______ _______ _____ _____    ______ ____
ROOT
ATOM      1  C   UNL     1      44.330  78.493  40.022  0.00  0.00    +0.023 C 
ENDROOT
BRANCH   1   2
ATOM      2  C   UNL     1      44.919  79.549  39.138  0.00  0.00    +0.101 C 
BRANCH   2  12
ATOM      3  C   UNL     1      48.586  81.955  39.714  0.00  0.00    +0.001 C 
ATOM      4  C   UNL     1      48.903  81.146  40.956  0.00  0.00    +0.001 C 
ATOM      5  C   UNL     1      48.132  81.859  42.015  0.00  0.00    +0.009 C 
ATOM      6  C   UNL     1      48.371  83.319  41.588  0.00  0.00    +0.001 C 
ATOM      7  C   UNL     1      47.776  83.144  40.182  0.00  0.00    +0.009 C 
ATOM      8  C   UNL     1      46.390  82.701  40.558  0.00  0.00    +0.086 C 
ATOM      9  C   UNL     1      46.660  81.743  41.698  0.00  0.00    +0.086 C 
ATOM     10  C   UNL     1      46.317  80.422  41.128  0.00  0.00    +0.231 C 
ATOM     11  O   UNL     1      46.569  79.289  41.610  0.00  0.00    -0.274 OA
ATOM     12  N   UNL     1      45.622  80.568  39.887  0.00  0.00    -0.230 N 
ATOM     13  C   UNL     1      45.731  81.919  39.493  0.00  0.00    +0.231 C 
ATOM     14  O   UNL     1      45.342  82.430  38.413  0.00  0.00    -0.274 OA
ENDBRANCH   2  12
ENDBRANCH   1   2
BRANCH   1  15
ATOM     15  C   UNL     1      42.869  78.243  39.713  0.00  0.00    +0.019 C 
BRANCH  15  16
ATOM     16  C   UNL     1      42.718  77.308  38.519  0.00  0.00    +0.072 C 
BRANCH  16  17
ATOM     17  N   UNL     1      41.401  76.935  38.327  0.00  0.00    -0.270 NA
ATOM     18  C   UNL     1      40.586  77.766  37.550  0.00  0.00    +0.094 C 
ATOM     19  C   UNL     1      39.887  77.027  36.416  0.00  0.00    +0.111 C 
ATOM     20  N   UNL     1      39.417  75.764  36.893  0.00  0.00    -0.275 N 
ATOM     21  C   UNL     1      39.492  75.448  38.302  0.00  0.00    +0.111 C 
ATOM     22  C   UNL     1      40.970  75.649  38.685  0.00  0.00    +0.094 C 
ATOM     23  C   UNL     1      38.876  74.803  35.995  0.00  0.00    +0.220 A 
ATOM     24  N   UNL     1      38.351  75.238  34.837  0.00  0.00    -0.212 NA
ATOM     25  C   UNL     1      37.832  74.382  33.959  0.00  0.00    +0.103 A 
ATOM     26  C   UNL     1      37.813  73.030  34.202  0.00  0.00    +0.041 A 
ATOM     27  C   UNL     1      38.363  72.612  35.406  0.00  0.00    +0.103 A 
ATOM     28  N   UNL     1      38.874  73.497  36.261  0.00  0.00    -0.212 NA
ENDBRANCH  16  17
ENDBRANCH  15  16
ENDBRANCH   1  15
TORSDOF 5
