REMARK  Name = Tapentadol_hydrochloride
REMARK  5 active torsions:
REMARK  status: ('A' for Active; 'I' for Inactive)
REMARK    1  A    between atoms: C_2  and  C_3
REMARK    2  A    between atoms: C_3  and  C_4
REMARK    3  A    between atoms: C_3  and  C_11
REMARK    4  A    between atoms: C_11  and  C_13
REMARK    5  A    between atoms: C_13  and  N_14
REMARK                            x       y       z     vdW  Elec       q    Type
REMARK                         _______ _______ _______ _____ _____    ______ ____
ROOT
ATOM      1  C   UNL     1      48.403  82.377  42.046  0.00  0.00    +0.024 C 
ENDROOT
BRANCH   1   2
ATOM      2  C   UNL     1      47.288  81.820  41.212  0.00  0.00    -0.019 A 
ATOM      3  C   UNL     1      46.989  82.374  39.994  0.00  0.00    +0.038 A 
ATOM      4  C   UNL     1      45.977  81.898  39.191  0.00  0.00    +0.195 A 
ATOM      5  C   UNL     1      45.236  80.825  39.626  0.00  0.00    +0.042 A 
ATOM      6  C   UNL     1      45.534  80.264  40.850  0.00  0.00    +0.003 A 
ATOM      7  C   UNL     1      46.545  80.745  41.645  0.00  0.00    -0.004 A 
ATOM      8  O   UNL     1      45.714  82.491  37.972  0.00  0.00    -0.287 OA
ENDBRANCH   1   2
BRANCH   1  10
ATOM      9  C   UNL     1      46.778  84.026  42.993  0.00  0.00    +0.000 C 
ATOM     10  C   UNL     1      48.078  83.849  42.282  0.00  0.00    +0.004 C 
ENDBRANCH   1  10
BRANCH   1  11
ATOM     11  C   UNL     1      49.676  82.225  41.249  0.00  0.00    +0.020 C 
ATOM     12  C   UNL     1      49.947  80.769  41.046  0.00  0.00    +0.002 C 
BRANCH  11  13
ATOM     13  C   UNL     1      50.824  83.025  41.766  0.00  0.00    +0.072 C 
BRANCH  13  14
ATOM     14  N   UNL     1      51.237  82.743  43.102  0.00  0.00    -0.270 NA
ATOM     15  C   UNL     1      52.357  83.655  43.402  0.00  0.00    +0.090 C 
ATOM     16  C   UNL     1      51.776  81.423  43.313  0.00  0.00    +0.090 C 
ENDBRANCH  13  14
ENDBRANCH  11  13
ENDBRANCH   1  11
TORSDOF 5
REMARK  Name = Tapentadol_hydrochloride
REMARK  5 active torsions:
REMARK  status: ('A' for Active; 'I' for Inactive)
REMARK    1  A    between atoms: C_2  and  C_3
REMARK    2  A    between atoms: C_3  and  C_4
REMARK    3  A    between atoms: C_3  and  C_11
REMARK    4  A    between atoms: C_11  and  C_13
REMARK    5  A    between atoms: C_13  and  N_14
REMARK                            x       y       z     vdW  Elec       q    Type
REMARK                         _______ _______ _______ _____ _____    ______ ____
ROOT
ATOM      1 CL   UNL     1      49.359  82.236  41.985  0.00  0.00    +0.000 Cl
ENDROOT
TORSDOF 0
