REMARK  Name = Tapinarof
REMARK  3 active torsions:
REMARK  status: ('A' for Active; 'I' for Inactive)
REMARK    1  A    between atoms: C_2  and  C_4
REMARK    2  A    between atoms: C_7  and  C_11
REMARK    3  A    between atoms: C_12  and  C_13
REMARK                            x       y       z     vdW  Elec       q    Type
REMARK                         _______ _______ _______ _____ _____    ______ ____
ROOT
ATOM      1  C   UNL     1      46.981  81.513  40.305  0.00  0.00    +0.055 A 
ATOM      2  C   UNL     1      46.228  81.864  39.187  0.00  0.00    +0.195 A 
ATOM      3  C   UNL     1      45.210  81.070  38.722  0.00  0.00    +0.042 A 
ATOM      4  C   UNL     1      44.910  79.871  39.381  0.00  0.00    +0.006 A 
ATOM      5  C   UNL     1      45.659  79.534  40.482  0.00  0.00    +0.042 A 
ATOM      6  C   UNL     1      46.701  80.341  40.964  0.00  0.00    +0.195 A 
ATOM      7  O   UNL     1      47.459  80.009  42.071  0.00  0.00    -0.287 OA
ATOM      8  O   UNL     1      46.504  83.048  38.514  0.00  0.00    -0.287 OA
ENDROOT
BRANCH   1  10
ATOM      9  C   UNL     1      47.864  82.898  42.161  0.00  0.00    +0.005 C 
ATOM     10  C   UNL     1      48.047  82.412  40.736  0.00  0.00    +0.029 C 
ATOM     11  C   UNL     1      49.427  81.845  40.623  0.00  0.00    +0.005 C 
ENDBRANCH   1  10
BRANCH   4  12
ATOM     12  C   UNL     1      43.839  79.012  38.912  0.00  0.00    +0.000 C 
ATOM     13  C   UNL     1      43.370  77.996  39.583  0.00  0.00    +0.000 C 
BRANCH  13  14
ATOM     14  C   UNL     1      42.387  77.061  39.050  0.00  0.00    +0.000 A 
ATOM     15  C   UNL     1      41.793  77.318  37.807  0.00  0.00    +0.000 A 
ATOM     16  C   UNL     1      40.872  76.456  37.291  0.00  0.00    +0.000 A 
ATOM     17  C   UNL     1      40.486  75.312  37.956  0.00  0.00    +0.000 A 
ATOM     18  C   UNL     1      41.077  75.072  39.176  0.00  0.00    +0.000 A 
ATOM     19  C   UNL     1      42.029  75.942  39.731  0.00  0.00    +0.000 A 
ENDBRANCH  13  14
ENDBRANCH   4  12
TORSDOF 3
