REMARK  Name = Tasimelteon
REMARK  4 active torsions:
REMARK  status: ('A' for Active; 'I' for Inactive)
REMARK    1  A    between atoms: C_2  and  C_3
REMARK    2  A    between atoms: N_5  and  C_6
REMARK    3  A    between atoms: C_6  and  C_7
REMARK    4  A    between atoms: C_9  and  C_10
REMARK                            x       y       z     vdW  Elec       q    Type
REMARK                         _______ _______ _______ _____ _____    ______ ____
ROOT
ATOM      1  C   UNL     1      44.135  78.349  40.845  0.00  0.00    +0.026 C 
ATOM      2  C   UNL     1      45.263  77.603  40.110  0.00  0.00    +0.006 C 
ATOM      3  C   UNL     1      45.547  78.831  40.884  0.00  0.00    +0.024 C 
ENDROOT
BRANCH   3   4
ATOM      4  C   UNL     1      45.966  80.075  40.268  0.00  0.00    -0.023 A 
ATOM      5  C   UNL     1      46.944  80.825  40.888  0.00  0.00    +0.012 A 
ATOM      6  C   UNL     1      47.753  80.655  42.127  0.00  0.00    +0.076 C 
ATOM      7  C   UNL     1      48.974  81.488  41.813  0.00  0.00    +0.210 C 
ATOM      8  O   UNL     1      48.343  82.593  41.141  0.00  0.00    -0.475 OA
ATOM      9  C   UNL     1      47.337  82.013  40.330  0.00  0.00    +0.134 A 
ATOM     10  C   UNL     1      46.788  82.500  39.156  0.00  0.00    +0.037 A 
ATOM     11  C   UNL     1      45.812  81.758  38.533  0.00  0.00    +0.003 A 
ATOM     12  C   UNL     1      45.417  80.542  39.113  0.00  0.00    -0.004 A 
ENDBRANCH   3   4
BRANCH   1  13
ATOM     13  C   UNL     1      43.106  78.857  39.881  0.00  0.00    +0.115 C 
BRANCH  13  16
ATOM     14  C   UNL     1      41.539  77.594  38.422  0.00  0.00    +0.241 C 
ATOM     15  O   UNL     1      40.596  77.891  39.214  0.00  0.00    -0.273 OA
ATOM     16  N   UNL     1      42.837  77.976  38.771  0.00  0.00    -0.205 NA
BRANCH  14  18
ATOM     17  C   UNL     1      39.781  76.353  37.193  0.00  0.00    +0.010 C 
ATOM     18  C   UNL     1      41.183  76.861  37.181  0.00  0.00    +0.087 C 
ENDBRANCH  14  18
ENDBRANCH  13  16
ENDBRANCH   1  13
TORSDOF 4
