REMARK  Name = Tasosartan
REMARK  4 active torsions:
REMARK  status: ('A' for Active; 'I' for Inactive)
REMARK    1  A    between atoms: N_8  and  C_14
REMARK    2  A    between atoms: C_14  and  C_15
REMARK    3  A    between atoms: C_18  and  C_21
REMARK    4  A    between atoms: C_26  and  C_27
REMARK                            x       y       z     vdW  Elec       q    Type
REMARK                         _______ _______ _______ _____ _____    ______ ____
ROOT
ATOM      1  C   UNL     1      46.271  80.630  41.649  0.00  0.00    -0.002 A 
ATOM      2  C   UNL     1      46.452  81.983  41.480  0.00  0.00    -0.003 A 
ATOM      3  C   UNL     1      47.744  82.474  41.450  0.00  0.00    -0.000 A 
ATOM      4  C   UNL     1      48.870  81.700  41.579  0.00  0.00    +0.000 A 
ATOM      5  C   UNL     1      48.673  80.329  41.750  0.00  0.00    -0.000 A 
ATOM      6  C   UNL     1      47.379  79.829  41.781  0.00  0.00    -0.003 A 
ENDROOT
BRANCH   4   7
ATOM      7  C   UNL     1      50.190  82.291  41.560  0.00  0.00    +0.003 A 
ATOM      8  C   UNL     1      51.216  81.762  40.760  0.00  0.00    +0.000 A 
ATOM      9  C   UNL     1      52.477  82.321  40.713  0.00  0.00    +0.000 A 
ATOM     10  C   UNL     1      52.774  83.438  41.464  0.00  0.00    +0.000 A 
ATOM     11  C   UNL     1      51.780  83.963  42.249  0.00  0.00    +0.003 A 
ATOM     12  C   UNL     1      50.497  83.398  42.301  0.00  0.00    +0.039 A 
BRANCH  12  13
ATOM     13  C   UNL     1      49.514  84.019  43.175  0.00  0.00    +0.208 A 
ATOM     14  N   UNL     1      49.042  85.267  43.137  0.00  0.00    -0.106 NA
ATOM     15  N   UNL     1      48.172  85.433  44.124  0.00  0.00    -0.021 NA
ATOM     16  N   UNL     1      48.093  84.288  44.789  0.00  0.00    -0.021 NA
ATOM     17  N   UNL     1      48.917  83.399  44.215  0.00  0.00    -0.106 NA
ENDBRANCH  12  13
ENDBRANCH   4   7
BRANCH   1  18
ATOM     18  C   UNL     1      44.913  80.065  41.683  0.00  0.00    +0.126 C 
BRANCH  18  26
ATOM     19  C   UNL     1      42.048  76.532  37.426  0.00  0.00    +0.052 C 
ATOM     20  C   UNL     1      42.525  76.901  38.780  0.00  0.00    +0.059 A 
ATOM     21  C   UNL     1      43.238  78.077  38.935  0.00  0.00    +0.024 A 
ATOM     22  C   UNL     1      43.490  78.888  37.753  0.00  0.00    +0.040 C 
ATOM     23  C   UNL     1      43.874  80.313  37.994  0.00  0.00    +0.090 C 
ATOM     24  C   UNL     1      44.693  80.477  39.221  0.00  0.00    +0.231 C 
ATOM     25  O   UNL     1      45.603  81.332  39.204  0.00  0.00    -0.274 OA
ATOM     26  N   UNL     1      44.444  79.675  40.385  0.00  0.00    -0.240 N 
ATOM     27  C   UNL     1      43.712  78.487  40.176  0.00  0.00    +0.136 A 
ATOM     28  N   UNL     1      43.432  77.662  41.228  0.00  0.00    -0.216 NA
ATOM     29  C   UNL     1      42.741  76.517  41.095  0.00  0.00    +0.141 A 
ATOM     30  N   UNL     1      42.296  76.152  39.868  0.00  0.00    -0.235 NA
ATOM     31  C   UNL     1      42.445  75.628  42.239  0.00  0.00    +0.074 C 
ENDBRANCH  18  26
ENDBRANCH   1  18
TORSDOF 4
