REMARK  Name = Taxol
REMARK  14 active torsions:
REMARK  status: ('A' for Active; 'I' for Inactive)
REMARK    1  A    between atoms: C_4  and  O_59
REMARK    2  A    between atoms: C_11  and  O_53
REMARK    3  A    between atoms: C_13  and  O_42
REMARK    4  A    between atoms: C_19  and  O_20
REMARK    5  A    between atoms: O_20  and  C_21
REMARK    6  A    between atoms: C_21  and  C_23
REMARK    7  A    between atoms: C_23  and  C_24
REMARK    8  A    between atoms: C_24  and  C_25
REMARK    9  A    between atoms: C_24  and  N_31
REMARK   10  A    between atoms: C_32  and  C_34
REMARK   11  A    between atoms: O_42  and  C_43
REMARK   12  A    between atoms: C_43  and  C_45
REMARK   13  A    between atoms: O_53  and  C_54
REMARK   14  A    between atoms: O_59  and  C_60
REMARK                            x       y       z     vdW  Elec       q    Type
REMARK                         _______ _______ _______ _____ _____    ______ ____
ROOT
ATOM      1  C   UNL     1      42.710  78.683  40.638  0.00  0.00    +0.029 C 
ATOM      2  C   UNL     1      44.171  78.449  40.749  0.00  0.00    -0.009 C 
ATOM      3  C   UNL     1      44.879  78.811  39.709  0.00  0.00    -0.000 C 
ATOM      4  C   UNL     1      44.326  79.846  38.876  0.00  0.00    +0.243 C 
ATOM      5  C   UNL     1      45.419  80.936  38.667  0.00  0.00    +0.196 C 
ATOM      6  O   UNL     1      45.514  81.104  37.480  0.00  0.00    -0.292 OA
ATOM      7  C   UNL     1      46.294  81.743  39.582  0.00  0.00    +0.090 C 
ATOM      8  C   UNL     1      46.843  82.797  38.523  0.00  0.00    +0.161 C 
ATOM      9  C   UNL     1      47.895  83.650  39.069  0.00  0.00    +0.067 C 
ATOM     10  C   UNL     1      48.169  83.570  40.523  0.00  0.00    +0.157 C 
ATOM     11  C   UNL     1      47.992  82.289  41.189  0.00  0.00    +0.191 C 
ATOM     12  C   UNL     1      47.496  81.213  40.173  0.00  0.00    +0.093 C 
ATOM     13  C   UNL     1      47.773  79.848  40.717  0.00  0.00    +0.201 C 
ATOM     14  C   UNL     1      46.676  78.940  40.955  0.00  0.00    +0.170 C 
ATOM     15  C   UNL     1      46.231  78.171  39.700  0.00  0.00    +0.048 C 
ATOM     16  C   UNL     1      46.108  76.716  39.764  0.00  0.00    +0.007 C 
ATOM     17  C   UNL     1      46.991  78.485  38.456  0.00  0.00    +0.007 C 
ATOM     18  C   UNL     1      46.331  78.094  42.070  0.00  0.00    +0.082 C 
ATOM     19  C   UNL     1      44.792  77.874  41.991  0.00  0.00    +0.189 C 
ATOM     20  O   UNL     1      45.700  79.979  41.286  0.00  0.00    -0.222 OA
ATOM     21  C   UNL     1      49.497  82.353  41.274  0.00  0.00    +0.185 C 
ATOM     22  O   UNL     1      49.516  83.638  40.817  0.00  0.00    -0.349 OA
ATOM     23  O   UNL     1      45.737  83.449  37.991  0.00  0.00    -0.223 OA
ATOM     24  C   UNL     1      45.438  82.718  40.358  0.00  0.00    +0.010 C 
ENDROOT
BRANCH  19  25
ATOM     25  O   UNL     1      44.432  76.588  42.304  0.00  0.00    -0.446 OA
BRANCH  25  26
ATOM     26  C   UNL     1      45.037  75.882  43.314  0.00  0.00    +0.350 C 
ATOM     27  O   UNL     1      44.757  76.213  44.483  0.00  0.00    -0.247 OA
BRANCH  26  28
ATOM     28  C   UNL     1      45.984  74.780  43.074  0.00  0.00    +0.273 C 
ATOM     29  O   UNL     1      46.538  74.302  44.262  0.00  0.00    -0.209 OA
BRANCH  28  30
ATOM     30  C   UNL     1      45.202  73.671  42.391  0.00  0.00    +0.159 C 
BRANCH  30  31
ATOM     31  C   UNL     1      43.881  73.618  43.112  0.00  0.00    +0.000 A 
ATOM     32  C   UNL     1      42.725  73.864  42.403  0.00  0.00    -0.003 A 
ATOM     33  C   UNL     1      41.489  73.835  43.004  0.00  0.00    -0.000 A 
ATOM     34  C   UNL     1      41.378  73.555  44.353  0.00  0.00    -0.000 A 
ATOM     35  C   UNL     1      42.532  73.308  45.068  0.00  0.00    -0.000 A 
ATOM     36  C   UNL     1      43.768  73.341  44.445  0.00  0.00    -0.003 A 
ENDBRANCH  30  31
BRANCH  30  37
ATOM     37  N   UNL     1      45.822  72.376  42.513  0.00  0.00    -0.196 NA
ATOM     38  C   UNL     1      46.883  72.028  41.637  0.00  0.00    +0.265 C 
ATOM     39  O   UNL     1      47.045  72.659  40.534  0.00  0.00    -0.268 OA
BRANCH  38  40
ATOM     40  C   UNL     1      47.780  70.949  42.005  0.00  0.00    +0.055 A 
ATOM     41  C   UNL     1      47.536  70.296  43.212  0.00  0.00    +0.005 A 
ATOM     42  C   UNL     1      48.340  69.262  43.626  0.00  0.00    +0.000 A 
ATOM     43  C   UNL     1      49.404  68.830  42.883  0.00  0.00    +0.000 A 
ATOM     44  C   UNL     1      49.652  69.464  41.697  0.00  0.00    +0.000 A 
ATOM     45  C   UNL     1      48.847  70.502  41.279  0.00  0.00    +0.005 A 
ENDBRANCH  38  40
ENDBRANCH  30  37
ENDBRANCH  28  30
ENDBRANCH  26  28
ENDBRANCH  25  26
ENDBRANCH  19  25
BRANCH  13  46
ATOM     46  O   UNL     1      48.526  79.921  41.945  0.00  0.00    -0.446 OA
BRANCH  46  47
ATOM     47  C   UNL     1      49.745  79.289  42.118  0.00  0.00    +0.341 C 
ATOM     48  O   UNL     1      50.283  78.793  41.091  0.00  0.00    -0.245 OA
BRANCH  47  49
ATOM     49  C   UNL     1      50.426  79.168  43.392  0.00  0.00    +0.076 A 
ATOM     50  C   UNL     1      51.329  80.091  43.833  0.00  0.00    +0.006 A 
ATOM     51  C   UNL     1      51.984  79.987  45.046  0.00  0.00    +0.000 A 
ATOM     52  C   UNL     1      51.739  78.916  45.874  0.00  0.00    +0.000 A 
ATOM     53  C   UNL     1      50.831  77.972  45.447  0.00  0.00    +0.000 A 
ATOM     54  C   UNL     1      50.177  78.094  44.214  0.00  0.00    +0.006 A 
ENDBRANCH  47  49
ENDBRANCH  46  47
ENDBRANCH  13  46
BRANCH  11  55
ATOM     55  O   UNL     1      47.310  82.238  42.406  0.00  0.00    -0.451 OA
BRANCH  55  56
ATOM     56  C   UNL     1      47.786  82.581  43.629  0.00  0.00    +0.317 C 
ATOM     57  O   UNL     1      48.997  82.417  43.856  0.00  0.00    -0.250 OA
ATOM     58  C   UNL     1      46.809  83.135  44.622  0.00  0.00    +0.121 C 
ENDBRANCH  55  56
ENDBRANCH  11  55
BRANCH   4  59
ATOM     59  O   UNL     1      43.998  79.301  37.606  0.00  0.00    -0.440 OA
BRANCH  59  60
ATOM     60  C   UNL     1      42.913  78.464  37.410  0.00  0.00    +0.318 C 
ATOM     61  O   UNL     1      42.624  78.177  36.203  0.00  0.00    -0.250 OA
ATOM     62  C   UNL     1      42.128  77.928  38.538  0.00  0.00    +0.121 C 
ENDBRANCH  59  60
ENDBRANCH   4  59
TORSDOF 14
