REMARK  Name = Tazarotene
REMARK  5 active torsions:
REMARK  status: ('A' for Active; 'I' for Inactive)
REMARK    1  A    between atoms: C_2  and  O_3
REMARK    2  A    between atoms: O_3  and  C_4
REMARK    3  A    between atoms: C_4  and  C_6
REMARK    4  A    between atoms: C_9  and  C_12
REMARK    5  A    between atoms: C_13  and  C_14
REMARK                            x       y       z     vdW  Elec       q    Type
REMARK                         _______ _______ _______ _____ _____    ______ ____
ROOT
ATOM      1  C   UNL     1      45.992  80.205  40.008  0.00  0.00    -0.040 C 
ATOM      2  C   UNL     1      47.049  80.771  40.449  0.00  0.00    -0.058 C 
ENDROOT
BRANCH   2   3
ATOM      3  C   UNL     1      48.216  81.403  40.963  0.00  0.00    +0.042 A 
ATOM      4  C   UNL     1      48.036  82.501  41.804  0.00  0.00    +0.004 A 
ATOM      5  C   UNL     1      49.151  83.177  42.319  0.00  0.00    -0.016 A 
ATOM      6  C   UNL     1      50.407  82.744  41.983  0.00  0.00    +0.021 A 
ATOM      7  C   UNL     1      50.600  81.671  41.161  0.00  0.00    +0.006 A 
ATOM      8  C   UNL     1      49.477  81.023  40.670  0.00  0.00    +0.009 A 
ATOM      9  S   UNL     1      51.817  83.601  42.651  0.00  0.00    -0.114 S 
ATOM     10  C   UNL     1      51.293  84.183  44.311  0.00  0.00    +0.062 C 
ATOM     11  C   UNL     1      49.819  84.082  44.465  0.00  0.00    +0.016 C 
ATOM     12  C   UNL     1      49.019  84.332  43.208  0.00  0.00    +0.020 C 
ATOM     13  C   UNL     1      49.397  85.657  42.606  0.00  0.00    +0.004 C 
ATOM     14  C   UNL     1      47.558  84.448  43.654  0.00  0.00    +0.004 C 
ENDBRANCH   2   3
BRANCH   1  18
ATOM     15  C   UNL     1      42.509  78.305  38.615  0.00  0.00    +0.095 A 
ATOM     16  C   UNL     1      42.898  79.576  38.165  0.00  0.00    +0.106 A 
ATOM     17  N   UNL     1      44.017  80.096  38.658  0.00  0.00    -0.235 NA
ATOM     18  C   UNL     1      44.842  79.566  39.538  0.00  0.00    +0.123 A 
ATOM     19  C   UNL     1      44.484  78.275  40.020  0.00  0.00    +0.028 A 
ATOM     20  C   UNL     1      43.338  77.701  39.540  0.00  0.00    +0.010 A 
BRANCH  15  21
ATOM     21  C   UNL     1      41.288  77.659  38.196  0.00  0.00    +0.343 C 
ATOM     22  O   UNL     1      40.386  78.357  37.671  0.00  0.00    -0.245 OA
BRANCH  21  23
ATOM     23  O   UNL     1      41.102  76.311  38.359  0.00  0.00    -0.445 OA
BRANCH  23  25
ATOM     24  C   UNL     1      39.601  75.065  36.948  0.00  0.00    +0.051 C 
ATOM     25  C   UNL     1      39.800  75.707  38.272  0.00  0.00    +0.209 C 
ENDBRANCH  23  25
ENDBRANCH  21  23
ENDBRANCH  15  21
ENDBRANCH   1  18
TORSDOF 5
