REMARK  Name = Tazemetostat
REMARK  9 active torsions:
REMARK  status: ('A' for Active; 'I' for Inactive)
REMARK    1  A    between atoms: C_2  and  N_3
REMARK    2  A    between atoms: N_3  and  C_4
REMARK    3  A    between atoms: N_3  and  C_10
REMARK    4  A    between atoms: C_12  and  C_30
REMARK    5  A    between atoms: C_14  and  C_17
REMARK    6  A    between atoms: N_19  and  C_20
REMARK    7  A    between atoms: C_20  and  C_21
REMARK    8  A    between atoms: C_33  and  C_36
REMARK    9  A    between atoms: C_36  and  N_37
REMARK                            x       y       z     vdW  Elec       q    Type
REMARK                         _______ _______ _______ _____ _____    ______ ____
ROOT
ATOM      1  C   UNL     1      44.220  77.720  41.112  0.00  0.00    +0.044 A 
ATOM      2  C   UNL     1      43.122  77.425  40.323  0.00  0.00    +0.014 A 
ATOM      3  C   UNL     1      42.730  78.191  39.246  0.00  0.00    +0.001 A 
ATOM      4  C   UNL     1      43.487  79.309  38.954  0.00  0.00    +0.004 A 
ATOM      5  C   UNL     1      44.579  79.607  39.735  0.00  0.00    +0.052 A 
ATOM      6  C   UNL     1      44.988  78.854  40.817  0.00  0.00    -0.004 A 
ATOM      7  C   UNL     1      46.178  79.209  41.620  0.00  0.00    +0.032 C 
ENDROOT
BRANCH   3   8
ATOM      8  C   UNL     1      41.566  77.797  38.441  0.00  0.00    +0.000 A 
ATOM      9  C   UNL     1      41.073  78.621  37.460  0.00  0.00    -0.000 A 
ATOM     10  C   UNL     1      39.987  78.252  36.684  0.00  0.00    -0.003 A 
ATOM     11  C   UNL     1      39.369  77.036  36.882  0.00  0.00    -0.006 A 
ATOM     12  C   UNL     1      39.870  76.221  37.868  0.00  0.00    -0.003 A 
ATOM     13  C   UNL     1      40.953  76.583  38.643  0.00  0.00    -0.000 A 
BRANCH  11  14
ATOM     14  C   UNL     1      38.181  76.624  36.051  0.00  0.00    +0.099 C 
BRANCH  14  15
ATOM     15  N   UNL     1      38.254  75.206  35.866  0.00  0.00    -0.265 NA
ATOM     16  C   UNL     1      37.036  74.510  36.059  0.00  0.00    +0.105 C 
ATOM     17  C   UNL     1      36.874  73.480  34.952  0.00  0.00    +0.159 C 
ATOM     18  O   UNL     1      37.983  72.681  34.840  0.00  0.00    -0.351 OA
ATOM     19  C   UNL     1      39.168  73.353  34.683  0.00  0.00    +0.159 C 
ATOM     20  C   UNL     1      38.922  74.852  34.619  0.00  0.00    +0.105 C 
ENDBRANCH  14  15
ENDBRANCH  11  14
ENDBRANCH   3   8
BRANCH   5  21
ATOM     21  C   UNL     1      45.451  80.788  39.451  0.00  0.00    +0.265 C 
ATOM     22  O   UNL     1      45.355  81.422  38.415  0.00  0.00    -0.268 OA
ATOM     23  N   UNL     1      46.392  81.130  40.449  0.00  0.00    -0.197 NA
BRANCH  23  24
ATOM     24  C   UNL     1      47.685  81.721  40.264  0.00  0.00    +0.146 C 
BRANCH  24  25
ATOM     25  C   UNL     1      48.226  82.413  41.422  0.00  0.00    +0.053 A 
ATOM     26  C   UNL     1      49.560  82.643  41.561  0.00  0.00    -0.018 A 
ATOM     27  C   UNL     1      49.995  83.231  42.753  0.00  0.00    +0.010 A 
ATOM     28  C   UNL     1      49.115  83.568  43.746  0.00  0.00    +0.062 A 
ATOM     29  N   UNL     1      47.793  83.324  43.567  0.00  0.00    -0.212 NA
ATOM     30  C   UNL     1      47.350  82.762  42.437  0.00  0.00    +0.276 A 
ATOM     31  O   UNL     1      46.118  82.544  42.285  0.00  0.00    -0.266 OA
ATOM     32  C   UNL     1      49.564  84.186  45.018  0.00  0.00    +0.052 C 
ATOM     33  C   UNL     1      50.587  82.386  40.495  0.00  0.00    +0.031 C 
ENDBRANCH  24  25
ENDBRANCH  23  24
ENDBRANCH   5  21
BRANCH   1  34
ATOM     34  N   UNL     1      44.594  76.907  42.216  0.00  0.00    -0.309 N 
BRANCH  34  35
ATOM     35  C   UNL     1      45.600  75.895  42.046  0.00  0.00    +0.078 C 
ATOM     36  C   UNL     1      45.613  75.244  40.695  0.00  0.00    +0.052 C 
ATOM     37  C   UNL     1      44.777  73.989  40.762  0.00  0.00    +0.144 C 
ATOM     38  O   UNL     1      45.571  72.999  41.392  0.00  0.00    -0.354 OA
ATOM     39  C   UNL     1      46.214  73.526  42.508  0.00  0.00    +0.144 C 
ATOM     40  C   UNL     1      45.517  74.769  43.055  0.00  0.00    +0.052 C 
ENDBRANCH  34  35
BRANCH  34  42
ATOM     41  C   UNL     1      44.883  77.858  44.490  0.00  0.00    +0.023 C 
ATOM     42  C   UNL     1      43.996  77.141  43.504  0.00  0.00    +0.091 C 
ENDBRANCH  34  42
ENDBRANCH   1  34
TORSDOF 9
