REMARK  Name = Tazobactam
REMARK  3 active torsions:
REMARK  status: ('A' for Active; 'I' for Inactive)
REMARK    1  A    between atoms: C_2  and  C_15
REMARK    2  A    between atoms: C_3  and  C_12
REMARK    3  A    between atoms: C_15  and  N_16
REMARK                            x       y       z     vdW  Elec       q    Type
REMARK                         _______ _______ _______ _____ _____    ______ ____
ROOT
ATOM      1  C   UNL     1      46.363  78.724  39.480  0.00  0.00    +0.028 C 
ATOM      2  C   UNL     1      46.057  80.060  40.156  0.00  0.00    +0.162 C 
ATOM      3  C   UNL     1      46.809  81.151  39.507  0.00  0.00    +0.202 C 
ATOM      4  N   UNL     1      47.957  81.508  40.263  0.00  0.00    -0.252 N 
ATOM      5  C   UNL     1      48.408  80.442  41.161  0.00  0.00    +0.215 C 
ATOM      6  S   UNL     1      46.771  80.066  41.802  0.00  0.00    +0.007 S 
ATOM      7  O   UNL     1      46.267  81.230  42.550  0.00  0.00    -0.171 OA
ATOM      8  O   UNL     1      46.697  78.774  42.469  0.00  0.00    -0.171 OA
ATOM      9  C   UNL     1      49.228  81.390  41.965  0.00  0.00    +0.130 C 
ATOM     10  C   UNL     1      49.041  82.270  40.769  0.00  0.00    +0.231 C 
ATOM     11  O   UNL     1      49.690  83.300  40.441  0.00  0.00    -0.275 OA
ENDROOT
BRANCH   3  12
ATOM     12  C   UNL     1      45.954  82.299  39.153  0.00  0.00    +0.384 C 
ATOM     13  O   UNL     1      45.723  83.189  39.971  0.00  0.00    -0.244 OA
ATOM     14  O   UNL     1      45.418  82.361  37.898  0.00  0.00    -0.244 OA
ENDBRANCH   3  12
BRANCH   2  15
ATOM     15  C   UNL     1      44.573  80.204  40.189  0.00  0.00    +0.153 C 
BRANCH  15  16
ATOM     16  N   UNL     1      43.929  78.938  39.836  0.00  0.00    -0.228 N 
ATOM     17  C   UNL     1      43.877  77.852  40.626  0.00  0.00    +0.119 A 
ATOM     18  C   UNL     1      43.183  76.847  39.947  0.00  0.00    +0.144 A 
ATOM     19  N   UNL     1      42.849  77.378  38.775  0.00  0.00    -0.127 NA
ATOM     20  N   UNL     1      43.296  78.608  38.730  0.00  0.00    -0.064 NA
ENDBRANCH  15  16
ENDBRANCH   2  15
TORSDOF 3
