REMARK  Name = Tebipenem_pivoxil
REMARK  9 active torsions:
REMARK  status: ('A' for Active; 'I' for Inactive)
REMARK    1  A    between atoms: C_4  and  C_31
REMARK    2  A    between atoms: C_8  and  C_20
REMARK    3  A    between atoms: C_9  and  S_10
REMARK    4  A    between atoms: S_10  and  C_11
REMARK    5  A    between atoms: C_20  and  O_22
REMARK    6  A    between atoms: O_22  and  C_23
REMARK    7  A    between atoms: C_23  and  O_24
REMARK    8  A    between atoms: O_24  and  C_25
REMARK    9  A    between atoms: C_25  and  C_27
REMARK                            x       y       z     vdW  Elec       q    Type
REMARK                         _______ _______ _______ _____ _____    ______ ____
ROOT
ATOM      1  C   UNL     1      46.542  79.813  42.304  0.00  0.00    +0.007 C 
ATOM      2  C   UNL     1      46.758  79.338  40.886  0.00  0.00    +0.049 C 
ATOM      3  C   UNL     1      46.026  78.023  40.658  0.00  0.00    +0.096 C 
ATOM      4  C   UNL     1      45.114  77.558  41.746  0.00  0.00    +0.126 C 
ATOM      5  C   UNL     1      44.158  77.395  40.579  0.00  0.00    +0.233 C 
ATOM      6  O   UNL     1      43.251  76.646  40.198  0.00  0.00    -0.274 OA
ATOM      7  N   UNL     1      44.774  78.548  40.049  0.00  0.00    -0.254 N 
ATOM      8  C   UNL     1      45.078  79.763  39.410  0.00  0.00    +0.132 C 
ATOM      9  C   UNL     1      46.222  80.260  39.862  0.00  0.00    +0.024 C 
ENDROOT
BRANCH   4  10
ATOM     10  C   UNL     1      45.454  76.250  42.410  0.00  0.00    +0.162 C 
ATOM     11  C   UNL     1      45.791  75.173  41.414  0.00  0.00    +0.036 C 
ATOM     12  O   UNL     1      44.341  75.839  43.136  0.00  0.00    -0.223 OA
ENDBRANCH   4  10
BRANCH   8  13
ATOM     13  C   UNL     1      44.202  80.372  38.370  0.00  0.00    +0.358 C 
ATOM     14  O   UNL     1      44.221  81.607  38.185  0.00  0.00    -0.243 OA
BRANCH  13  15
ATOM     15  O   UNL     1      43.377  79.639  37.605  0.00  0.00    -0.404 OA
BRANCH  15  16
ATOM     16  C   UNL     1      42.059  79.389  37.470  0.00  0.00    +0.433 C 
BRANCH  16  17
ATOM     17  O   UNL     1      41.511  78.136  37.447  0.00  0.00    -0.408 OA
BRANCH  17  18
ATOM     18  C   UNL     1      40.309  77.575  37.348  0.00  0.00    +0.319 C 
ATOM     19  O   UNL     1      39.293  78.302  37.374  0.00  0.00    -0.250 OA
BRANCH  18  20
ATOM     20  C   UNL     1      40.048  76.109  37.203  0.00  0.00    +0.090 C 
ATOM     21  C   UNL     1      40.761  75.302  38.232  0.00  0.00    +0.011 C 
ATOM     22  C   UNL     1      38.585  75.792  37.261  0.00  0.00    +0.011 C 
ATOM     23  C   UNL     1      40.570  75.710  35.836  0.00  0.00    +0.011 C 
ENDBRANCH  18  20
ENDBRANCH  17  18
ENDBRANCH  16  17
ENDBRANCH  15  16
ENDBRANCH  13  15
ENDBRANCH   8  13
BRANCH   9  24
ATOM     24  S   UNL     1      46.969  81.761  39.305  0.00  0.00    -0.114 S 
BRANCH  24  25
ATOM     25  C   UNL     1      47.609  82.730  40.678  0.00  0.00    +0.091 C 
ATOM     26  C   UNL     1      49.038  83.209  40.490  0.00  0.00    +0.105 C 
ATOM     27  N   UNL     1      49.308  82.844  41.877  0.00  0.00    -0.287 N 
ATOM     28  C   UNL     1      48.173  81.953  41.826  0.00  0.00    +0.105 C 
ATOM     29  C   UNL     1      50.302  83.257  42.798  0.00  0.00    +0.155 C 
ATOM     30  N   UNL     1      51.440  83.744  42.551  0.00  0.00    -0.250 NA
ATOM     31  C   UNL     1      52.307  84.100  43.589  0.00  0.00    +0.139 C 
ATOM     32  C   UNL     1      51.556  84.383  44.875  0.00  0.00    +0.091 C 
ATOM     33  S   UNL     1      50.169  83.197  44.583  0.00  0.00    -0.078 S 
ENDBRANCH  24  25
ENDBRANCH   9  24
TORSDOF 9
