REMARK  Name = TECFIDERA
REMARK  4 active torsions:
REMARK  status: ('A' for Active; 'I' for Inactive)
REMARK    1  A    between atoms: O_2  and  C_3
REMARK    2  A    between atoms: C_3  and  C_5
REMARK    3  A    between atoms: C_6  and  C_7
REMARK    4  A    between atoms: C_7  and  O_9
REMARK                            x       y       z     vdW  Elec       q    Type
REMARK                         _______ _______ _______ _____ _____    ______ ____
ROOT
ATOM      1  C   UNL     1      44.783  80.228  39.247  0.00  0.00    +0.089 C 
ATOM      2  C   UNL     1      43.770  79.870  38.544  0.00  0.00    +0.089 C 
ENDROOT
BRANCH   1   3
ATOM      3  C   UNL     1      45.635  81.368  39.020  0.00  0.00    +0.342 C 
ATOM      4  O   UNL     1      45.519  82.218  38.129  0.00  0.00    -0.245 OA
BRANCH   3   6
ATOM      5  C   UNL     1      47.627  82.694  39.671  0.00  0.00    +0.256 C 
ATOM      6  O   UNL     1      46.752  81.602  39.877  0.00  0.00    -0.441 OA
ENDBRANCH   3   6
ENDBRANCH   1   3
BRANCH   2   7
ATOM      7  C   UNL     1      42.913  78.741  38.764  0.00  0.00    +0.342 C 
ATOM      8  O   UNL     1      43.175  78.067  39.842  0.00  0.00    -0.245 OA
BRANCH   7   9
ATOM      9  O   UNL     1      41.874  78.264  38.031  0.00  0.00    -0.441 OA
ATOM     10  C   UNL     1      41.349  76.977  38.270  0.00  0.00    +0.256 C 
ENDBRANCH   7   9
ENDBRANCH   2   7
TORSDOF 4
