REMARK  Name = Technetium_Tc-99m_Pentetate_Kit
REMARK  16 active torsions:
REMARK  status: ('A' for Active; 'I' for Inactive)
REMARK    1  A    between atoms: C_1  and  C_2
REMARK    2  A    between atoms: C_1  and  N_12
REMARK    3  A    between atoms: C_2  and  N_3
REMARK    4  A    between atoms: N_3  and  C_4
REMARK    5  A    between atoms: N_3  and  C_8
REMARK    6  A    between atoms: C_4  and  C_5
REMARK    7  A    between atoms: C_8  and  C_9
REMARK    8  A    between atoms: N_12  and  C_13
REMARK    9  A    between atoms: N_12  and  C_24
REMARK   10  A    between atoms: C_13  and  C_14
REMARK   11  A    between atoms: C_14  and  N_15
REMARK   12  A    between atoms: N_15  and  C_16
REMARK   13  A    between atoms: N_15  and  C_20
REMARK   14  A    between atoms: C_16  and  C_17
REMARK   15  A    between atoms: C_20  and  C_21
REMARK   16  A    between atoms: C_24  and  C_25
REMARK                            x       y       z     vdW  Elec       q    Type
REMARK                         _______ _______ _______ _____ _____    ______ ____
ROOT
ATOM      1  N   UNL     1      44.620  76.804  41.547  0.00  0.00    -0.261 NA
ENDROOT
BRANCH   1   2
ATOM      2  C   UNL     1      43.706  75.934  40.954  0.00  0.00    +0.090 C 
BRANCH   2   3
ATOM      3  C   UNL     1      42.730  76.728  40.111  0.00  0.00    +0.091 C 
BRANCH   3   4
ATOM      4  N   UNL     1      41.602  75.963  39.612  0.00  0.00    -0.252 NA
BRANCH   4   5
ATOM      5  C   UNL     1      41.944  75.042  38.555  0.00  0.00    +0.188 C 
BRANCH   5   6
ATOM      6  C   UNL     1      41.764  73.660  39.062  0.00  0.00    +0.381 C 
ATOM      7  O   UNL     1      41.347  73.374  40.202  0.00  0.00    -0.244 OA
ATOM      8  O   UNL     1      42.073  72.553  38.238  0.00  0.00    -0.244 OA
ENDBRANCH   5   6
ENDBRANCH   4   5
BRANCH   4   9
ATOM      9  C   UNL     1      40.576  76.896  39.147  0.00  0.00    +0.188 C 
BRANCH   9  10
ATOM     10  C   UNL     1      40.572  77.232  37.745  0.00  0.00    +0.381 C 
ATOM     11  O   UNL     1      41.311  76.536  36.962  0.00  0.00    -0.244 OA
ATOM     12  O   UNL     1      39.843  78.236  37.174  0.00  0.00    -0.244 OA
ENDBRANCH   9  10
ENDBRANCH   4   9
ENDBRANCH   3   4
ENDBRANCH   2   3
ENDBRANCH   1   2
BRANCH   1  13
ATOM     13  C   UNL     1      44.619  76.914  42.950  0.00  0.00    +0.188 C 
BRANCH  13  14
ATOM     14  C   UNL     1      44.574  75.687  43.749  0.00  0.00    +0.381 C 
ATOM     15  O   UNL     1      44.488  74.587  43.156  0.00  0.00    -0.244 OA
ATOM     16  O   UNL     1      44.622  75.735  45.119  0.00  0.00    -0.244 OA
ENDBRANCH  13  14
ENDBRANCH   1  13
BRANCH   1  17
ATOM     17  C   UNL     1      44.917  78.033  40.931  0.00  0.00    +0.090 C 
BRANCH  17  18
ATOM     18  C   UNL     1      46.214  78.685  41.013  0.00  0.00    +0.091 C 
BRANCH  18  19
ATOM     19  N   UNL     1      46.332  79.976  40.323  0.00  0.00    -0.252 NA
BRANCH  19  20
ATOM     20  C   UNL     1      46.600  81.026  41.235  0.00  0.00    +0.188 C 
BRANCH  20  21
ATOM     21  C   UNL     1      47.861  80.853  41.971  0.00  0.00    +0.381 C 
ATOM     22  O   UNL     1      48.592  79.858  41.817  0.00  0.00    -0.244 OA
ATOM     23  O   UNL     1      48.251  81.835  42.868  0.00  0.00    -0.244 OA
ENDBRANCH  20  21
ENDBRANCH  19  20
BRANCH  19  24
ATOM     24  C   UNL     1      45.426  80.154  39.282  0.00  0.00    +0.188 C 
BRANCH  24  25
ATOM     25  C   UNL     1      45.596  81.412  38.542  0.00  0.00    +0.381 C 
ATOM     26  O   UNL     1      46.582  82.142  38.700  0.00  0.00    -0.244 OA
ATOM     27  O   UNL     1      44.589  81.789  37.621  0.00  0.00    -0.244 OA
ENDBRANCH  24  25
ENDBRANCH  19  24
ENDBRANCH  18  19
ENDBRANCH  17  18
ENDBRANCH   1  17
TORSDOF 16
