REMARK  Name = Tecovirimat
REMARK  3 active torsions:
REMARK  status: ('A' for Active; 'I' for Inactive)
REMARK    1  A    between atoms: N_12  and  N_15
REMARK    2  A    between atoms: C_16  and  C_18
REMARK    3  A    between atoms: C_21  and  C_24
REMARK                            x       y       z     vdW  Elec       q    Type
REMARK                         _______ _______ _______ _____ _____    ______ ____
ROOT
ATOM      1  C   UNL     1      48.663  84.210  42.514  0.00  0.00    +0.001 C 
ATOM      2  C   UNL     1      47.584  84.013  41.419  0.00  0.00    +0.005 C 
ATOM      3  C   UNL     1      47.714  83.164  42.703  0.00  0.00    +0.005 C 
ATOM      4  C   UNL     1      47.812  81.722  42.185  0.00  0.00    +0.031 C 
ATOM      5  C   UNL     1      49.172  81.683  41.500  0.00  0.00    -0.031 C 
ATOM      6  C   UNL     1      49.324  82.603  40.554  0.00  0.00    -0.031 C 
ATOM      7  C   UNL     1      48.010  83.222  40.172  0.00  0.00    +0.031 C 
ATOM      8  C   UNL     1      47.186  82.055  39.907  0.00  0.00    +0.092 C 
ATOM      9  C   UNL     1      46.674  81.616  41.299  0.00  0.00    +0.092 C 
ATOM     10  C   UNL     1      46.058  80.379  40.873  0.00  0.00    +0.249 C 
ATOM     11  O   UNL     1      46.083  79.224  41.318  0.00  0.00    -0.273 OA
ATOM     12  N   UNL     1      45.324  80.805  39.691  0.00  0.00    -0.132 N 
ATOM     13  C   UNL     1      45.916  82.058  39.239  0.00  0.00    +0.249 C 
ATOM     14  O   UNL     1      45.330  82.834  38.461  0.00  0.00    -0.273 OA
ENDROOT
BRANCH  12  15
ATOM     15  N   UNL     1      44.233  80.135  39.080  0.00  0.00    -0.097 NA
ATOM     16  C   UNL     1      43.802  78.870  39.539  0.00  0.00    +0.283 C 
ATOM     17  O   UNL     1      44.409  78.418  40.563  0.00  0.00    -0.267 OA
BRANCH  16  18
ATOM     18  C   UNL     1      42.736  78.115  38.901  0.00  0.00    +0.057 A 
ATOM     19  C   UNL     1      42.069  78.547  37.786  0.00  0.00    +0.005 A 
ATOM     20  C   UNL     1      41.057  77.828  37.182  0.00  0.00    +0.004 A 
ATOM     21  C   UNL     1      40.675  76.630  37.689  0.00  0.00    +0.071 A 
ATOM     22  C   UNL     1      41.318  76.156  38.810  0.00  0.00    +0.004 A 
ATOM     23  C   UNL     1      42.329  76.876  39.413  0.00  0.00    +0.005 A 
BRANCH  21  24
ATOM     24  C   UNL     1      39.592  75.833  37.065  0.00  0.00    +0.419 C 
ATOM     25  F   UNL     1      40.157  74.912  36.220  0.00  0.00    -0.166 F 
ATOM     26  F   UNL     1      38.847  75.168  38.014  0.00  0.00    -0.166 F 
ATOM     27  F   UNL     1      38.769  76.647  36.306  0.00  0.00    -0.166 F 
ENDBRANCH  21  24
ENDBRANCH  16  18
ENDBRANCH  12  15
TORSDOF 3
