REMARK  Name = Tedizolid
REMARK  4 active torsions:
REMARK  status: ('A' for Active; 'I' for Inactive)
REMARK    1  A    between atoms: C_4  and  C_7
REMARK    2  A    between atoms: C_10  and  C_13
REMARK    3  A    between atoms: C_16  and  N_19
REMARK    4  A    between atoms: C_21  and  C_25
REMARK                            x       y       z     vdW  Elec       q    Type
REMARK                         _______ _______ _______ _____ _____    ______ ____
ROOT
ATOM      1  C   UNL     1      47.124  81.183  40.577  0.00  0.00    +0.029 A 
ATOM      2  C   UNL     1      47.428  80.945  41.899  0.00  0.00    +0.141 A 
ATOM      3  C   UNL     1      48.522  81.606  42.452  0.00  0.00    +0.045 A 
ATOM      4  C   UNL     1      49.285  82.473  41.712  0.00  0.00    +0.059 A 
ATOM      5  C   UNL     1      48.935  82.680  40.373  0.00  0.00    +0.015 A 
ATOM      6  C   UNL     1      47.860  82.041  39.801  0.00  0.00    +0.004 A 
ATOM      7  F   UNL     1      46.707  80.096  42.681  0.00  0.00    -0.204 F 
ENDROOT
BRANCH   1  11
ATOM      8  C   UNL     1      43.750  79.065  39.056  0.00  0.00    +0.120 A 
ATOM      9  N   UNL     1      44.068  80.294  38.612  0.00  0.00    -0.241 NA
ATOM     10  C   UNL     1      45.132  80.983  39.079  0.00  0.00    +0.099 A 
ATOM     11  C   UNL     1      45.960  80.457  40.049  0.00  0.00    +0.021 A 
ATOM     12  C   UNL     1      45.649  79.198  40.517  0.00  0.00    +0.003 A 
ATOM     13  C   UNL     1      44.551  78.504  40.025  0.00  0.00    +0.022 A 
BRANCH   8  17
ATOM     14  C   UNL     1      40.188  75.640  38.270  0.00  0.00    +0.180 C 
ATOM     15  N   UNL     1      41.020  76.840  38.179  0.00  0.00    -0.149 N 
ATOM     16  N   UNL     1      42.082  77.152  38.900  0.00  0.00    -0.128 NA
ATOM     17  C   UNL     1      42.579  78.343  38.521  0.00  0.00    +0.223 A 
ATOM     18  N   UNL     1      41.782  78.772  37.526  0.00  0.00    -0.106 NA
ATOM     19  N   UNL     1      40.835  77.843  37.329  0.00  0.00    -0.045 NA
ENDBRANCH   8  17
ENDBRANCH   1  11
BRANCH   4  20
ATOM     20  N   UNL     1      50.413  83.164  42.250  0.00  0.00    -0.221 N 
ATOM     21  C   UNL     1      50.376  84.386  43.042  0.00  0.00    +0.148 C 
ATOM     22  C   UNL     1      51.653  84.365  43.859  0.00  0.00    +0.223 C 
ATOM     23  O   UNL     1      52.465  83.408  43.248  0.00  0.00    -0.434 OA
ATOM     24  C   UNL     1      51.787  82.841  42.150  0.00  0.00    +0.409 C 
ATOM     25  O   UNL     1      52.298  82.158  41.221  0.00  0.00    -0.226 OA
BRANCH  22  26
ATOM     26  C   UNL     1      51.257  83.967  45.274  0.00  0.00    +0.227 C 
ATOM     27  O   UNL     1      52.264  84.456  46.122  0.00  0.00    -0.216 OA
ENDBRANCH  22  26
ENDBRANCH   4  20
TORSDOF 4
