REMARK  Name = Tegafur
REMARK  1 active torsions:
REMARK  status: ('A' for Active; 'I' for Inactive)
REMARK    1  A    between atoms: C_3  and  N_6
REMARK                            x       y       z     vdW  Elec       q    Type
REMARK                         _______ _______ _______ _____ _____    ______ ____
ROOT
ATOM      1  N   UNL     1      45.692  80.734  39.927  0.00  0.00    -0.253 N 
ATOM      2  C   UNL     1      46.605  80.696  40.901  0.00  0.00    +0.117 A 
ATOM      3  C   UNL     1      47.513  81.707  41.018  0.00  0.00    +0.215 A 
ATOM      4  C   UNL     1      47.481  82.763  40.127  0.00  0.00    +0.312 A 
ATOM      5  O   UNL     1      48.291  83.719  40.186  0.00  0.00    -0.263 OA
ATOM      6  N   UNL     1      46.562  82.785  39.159  0.00  0.00    -0.151 NA
ATOM      7  C   UNL     1      45.675  81.776  39.062  0.00  0.00    +0.355 A 
ATOM      8  O   UNL     1      44.805  81.817  38.130  0.00  0.00    -0.244 OA
ATOM      9  F   UNL     1      48.478  81.741  41.987  0.00  0.00    -0.197 F 
ENDROOT
BRANCH   1  12
ATOM     10  C   UNL     1      43.439  77.970  40.653  0.00  0.00    +0.037 C 
ATOM     11  C   UNL     1      43.934  79.384  40.989  0.00  0.00    +0.057 C 
ATOM     12  C   UNL     1      44.686  79.708  39.721  0.00  0.00    +0.208 C 
ATOM     13  O   UNL     1      45.332  78.538  39.415  0.00  0.00    -0.335 OA
ATOM     14  C   UNL     1      44.556  77.475  39.782  0.00  0.00    +0.144 C 
ENDBRANCH   1  12
TORSDOF 1
