REMARK  Name = Teicoplanin
REMARK  20 active torsions:
REMARK  status: ('A' for Active; 'I' for Inactive)
REMARK    1  A    between atoms: C_2  and  C_3
REMARK    2  A    between atoms: C_3  and  C_4
REMARK    3  A    between atoms: C_4  and  C_5
REMARK    4  A    between atoms: C_5  and  C_6
REMARK    5  A    between atoms: C_6  and  C_7
REMARK    6  A    between atoms: C_7  and  C_8
REMARK    7  A    between atoms: C_8  and  C_9
REMARK    8  A    between atoms: C_9  and  C_10
REMARK    9  A    between atoms: N_12  and  C_13
REMARK   10  A    between atoms: C_16  and  C_129
REMARK   11  A    between atoms: C_18  and  O_19
REMARK   12  A    between atoms: O_19  and  C_20
REMARK   13  A    between atoms: C_33  and  O_113
REMARK   14  A    between atoms: CA_38  and  C_110
REMARK   15  A    between atoms: C_41  and  O_46
REMARK   16  A    between atoms: O_46  and  C_47
REMARK   17  A    between atoms: C_51  and  C_53
REMARK   18  A    between atoms: O_113  and  C_114
REMARK   19  A    between atoms: C_115  and  N_124
REMARK   20  A    between atoms: C_118  and  C_120
REMARK                            x       y       z     vdW  Elec       q    Type
REMARK                         _______ _______ _______ _____ _____    ______ ____
ROOT
ATOM      1  C   UNL     1      46.733  76.201  42.856  0.00  0.00    +0.210 A 
ATOM      2  C   UNL     1      45.921  76.756  43.837  0.00  0.00    +0.182 A 
ATOM      3  C   UNL     1      46.347  76.930  45.133  0.00  0.00    +0.039 A 
ATOM      4  C   UNL     1      47.642  76.502  45.454  0.00  0.00    +0.012 A 
ATOM      5  C   UNL     1      48.498  75.954  44.510  0.00  0.00    +0.039 A 
ATOM      6  C   UNL     1      48.027  75.803  43.222  0.00  0.00    +0.182 A 
ATOM      7  O   UNL     1      48.758  75.210  42.105  0.00  0.00    -0.449 OA
ATOM      8  C   UNL     1      49.655  74.127  42.493  0.00  0.00    +0.156 A 
ATOM      9  C   UNL     1      49.397  72.831  42.477  0.00  0.00    +0.092 A 
ATOM     10  C   UNL     1      50.367  71.885  42.968  0.00  0.00    +0.013 A 
ATOM     11  C   UNL     1      51.583  72.306  43.461  0.00  0.00    +0.008 A 
ATOM     12  C   UNL     1      51.851  73.646  43.448  0.00  0.00    +0.001 A 
ATOM     13  C   UNL     1      50.867  74.557  42.956  0.00  0.00    +0.038 A 
ATOM     14  C   UNL     1      52.525  71.335  44.227  0.00  0.00    +0.169 C 
ATOM     15  CA  UNL     1      52.553  71.839  45.690  0.00  0.00    +0.204 C 
ATOM     16  C   UNL     1      53.301  70.912  46.595  0.00  0.00    +0.265 C 
ATOM     17  O   UNL     1      53.063  69.656  46.353  0.00  0.00    -0.271 OA
ATOM     18  N   UNL     1      54.182  71.195  47.633  0.00  0.00    -0.189 NA
ATOM     19  CA  UNL     1      55.524  71.670  47.758  0.00  0.00    +0.220 C 
ATOM     20  C   UNL     1      55.788  72.344  49.103  0.00  0.00    +0.014 A 
ATOM     21  C   UNL     1      54.889  72.989  49.902  0.00  0.00    +0.036 A 
ATOM     22  C   UNL     1      55.380  73.558  51.116  0.00  0.00    +0.144 A 
ATOM     23  C   UNL     1      56.715  73.457  51.471  0.00  0.00    +0.079 A 
ATOM     24  C   UNL     1      57.578  72.804  50.649  0.00  0.00    +0.199 A 
ATOM     25  C   UNL     1      57.106  72.257  49.477  0.00  0.00    +0.040 A 
ATOM     26  O   UNL     1      58.923  72.694  51.004  0.00  0.00    -0.286 OA
ATOM     27  C   UNL     1      53.420  73.147  49.690  0.00  0.00    +0.041 A 
ATOM     28  C   UNL     1      52.701  72.655  50.819  0.00  0.00    +0.196 A 
ATOM     29  C   UNL     1      51.341  72.656  50.852  0.00  0.00    +0.042 A 
ATOM     30  C   UNL     1      50.665  73.154  49.743  0.00  0.00    +0.001 A 
ATOM     31  C   UNL     1      51.362  73.644  48.624  0.00  0.00    +0.006 A 
ATOM     32  C   UNL     1      52.736  73.650  48.583  0.00  0.00    +0.001 A 
ATOM     33  CA  UNL     1      50.412  74.054  47.516  0.00  0.00    +0.195 C 
ATOM     34  C   UNL     1      50.355  73.033  46.435  0.00  0.00    +0.266 C 
ATOM     35  O   UNL     1      49.376  73.204  45.632  0.00  0.00    -0.271 OA
ATOM     36  N   UNL     1      51.163  71.947  46.164  0.00  0.00    -0.193 NA
ATOM     37  N   UNL     1      50.378  75.442  47.200  0.00  0.00    -0.191 NA
ATOM     38  C   UNL     1      49.326  76.402  47.378  0.00  0.00    +0.266 C 
ATOM     39  O   UNL     1      49.564  77.472  47.945  0.00  0.00    -0.271 OA
ATOM     40  CA  UNL     1      47.949  76.210  46.923  0.00  0.00    +0.195 C 
ATOM     41  N   UNL     1      46.977  76.433  47.934  0.00  0.00    -0.191 NA
ATOM     42  C   UNL     1      45.735  75.813  48.162  0.00  0.00    +0.266 C 
ATOM     43  O   UNL     1      44.794  76.594  48.524  0.00  0.00    -0.271 OA
ATOM     44  CA  UNL     1      45.340  74.403  48.050  0.00  0.00    +0.195 C 
ATOM     45  C   UNL     1      45.316  73.584  49.297  0.00  0.00    +0.012 A 
ATOM     46  C   UNL     1      46.367  72.663  49.371  0.00  0.00    +0.040 A 
ATOM     47  C   UNL     1      46.525  71.725  50.369  0.00  0.00    +0.199 A 
ATOM     48  C   UNL     1      45.558  71.727  51.338  0.00  0.00    +0.079 A 
ATOM     49  C   UNL     1      44.490  72.635  51.288  0.00  0.00    +0.148 A 
ATOM     50  C   UNL     1      44.346  73.571  50.300  0.00  0.00    +0.036 A 
ATOM     51  O   UNL     1      43.603  72.388  52.400  0.00  0.00    -0.450 OA
ATOM     52  C   UNL     1      42.172  72.478  52.153  0.00  0.00    +0.184 A 
ATOM     53  C   UNL     1      41.523  73.250  53.086  0.00  0.00    +0.230 A 
ATOM     54  C   UNL     1      40.167  73.515  53.017  0.00  0.00    +0.045 A 
ATOM     55  C   UNL     1      39.535  72.939  51.943  0.00  0.00    +0.001 A 
ATOM     56  C   UNL     1      40.170  72.137  50.970  0.00  0.00    +0.007 A 
ATOM     57  C   UNL     1      41.511  71.910  51.106  0.00  0.00    +0.038 A 
ATOM     58  CA  UNL     1      39.251  71.782  49.855  0.00  0.00    +0.192 C 
ATOM     59  C   UNL     1      39.819  71.896  48.464  0.00  0.00    +0.263 C 
ATOM     60  O   UNL     1      38.954  71.490  47.564  0.00  0.00    -0.271 OA
ATOM     61  N   UNL     1      41.056  72.338  48.031  0.00  0.00    -0.196 NA
ATOM     62  CA  UNL     1      41.711  73.596  47.804  0.00  0.00    +0.177 C 
ATOM     63  C   UNL     1      40.847  74.461  46.837  0.00  0.00    +0.057 C 
ATOM     64  C   UNL     1      41.670  75.176  45.820  0.00  0.00    -0.019 A 
ATOM     65  C   UNL     1      42.021  74.575  44.644  0.00  0.00    +0.010 A 
ATOM     66  C   UNL     1      42.991  75.254  43.793  0.00  0.00    +0.092 A 
ATOM     67  C   UNL     1      43.516  76.406  44.147  0.00  0.00    +0.156 A 
ATOM     68  O   UNL     1      44.571  77.088  43.355  0.00  0.00    -0.449 OA
ATOM     69  C   UNL     1      43.180  77.044  45.292  0.00  0.00    +0.038 A 
ATOM     70  C   UNL     1      42.223  76.391  46.149  0.00  0.00    -0.001 A 
ATOM     71 CL   UNL     1      43.165  74.277  42.266  0.00  0.00    -0.079 Cl
ATOM     72  C   UNL     1      43.046  73.442  47.169  0.00  0.00    +0.262 C 
ATOM     73  O   UNL     1      43.023  72.288  46.476  0.00  0.00    -0.271 OA
ATOM     74  N   UNL     1      44.207  74.159  47.135  0.00  0.00    -0.192 NA
ATOM     75  N   UNL     1      38.573  70.501  50.074  0.00  0.00    -0.118 NA
ATOM     76  O   UNL     1      42.183  73.840  54.198  0.00  0.00    -0.283 OA
ATOM     77  O   UNL     1      47.598  70.838  50.392  0.00  0.00    -0.286 OA
ATOM     78  O   UNL     1      53.266  72.136  51.963  0.00  0.00    -0.287 OA
ATOM     79 CL   UNL     1      47.954  71.937  41.815  0.00  0.00    -0.079 Cl
ENDROOT
BRANCH  19  80
ATOM     80  C   UNL     1      56.211  72.294  46.679  0.00  0.00    +0.388 C 
ATOM     81  O   UNL     1      57.349  71.875  46.328  0.00  0.00    -0.243 OA
ATOM     82  OXT UNL     1      55.739  73.350  45.961  0.00  0.00    -0.243 OA
ENDBRANCH  19  80
BRANCH   1  83
ATOM     83  O   UNL     1      46.319  76.040  41.542  0.00  0.00    -0.445 OA
BRANCH  83  89
ATOM     84  C   UNL     1      44.561  75.395  39.999  0.00  0.00    +0.198 C 
ATOM     85  C   UNL     1      43.732  74.157  39.572  0.00  0.00    +0.211 C 
ATOM     86  C   UNL     1      43.425  73.298  40.740  0.00  0.00    +0.214 C 
ATOM     87  C   UNL     1      43.651  74.031  42.040  0.00  0.00    +0.184 C 
ATOM     88  O   UNL     1      44.937  74.451  42.173  0.00  0.00    -0.316 OA
ATOM     89  C   UNL     1      45.523  75.016  41.027  0.00  0.00    +0.311 C 
ATOM     90  O   UNL     1      44.253  72.174  40.741  0.00  0.00    -0.218 OA
ATOM     91  O   UNL     1      44.566  73.451  38.670  0.00  0.00    -0.218 OA
BRANCH  84  94
ATOM     92  C   UNL     1      44.014  77.816  39.900  0.00  0.00    +0.242 C 
ATOM     93  O   UNL     1      43.128  78.698  40.057  0.00  0.00    -0.273 OA
ATOM     94  N   UNL     1      43.665  76.470  40.346  0.00  0.00    -0.198 NA
BRANCH  92  95
ATOM     95  C   UNL     1      45.329  78.075  39.326  0.00  0.00    +0.087 C 
BRANCH  95  96
ATOM     96  C   UNL     1      46.002  79.258  39.948  0.00  0.00    +0.010 C 
BRANCH  96  97
ATOM     97  C   UNL     1      47.341  79.574  39.367  0.00  0.00    +0.001 C 
BRANCH  97  98
ATOM     98  C   UNL     1      47.908  80.665  40.334  0.00  0.00    +0.000 C 
BRANCH  98  99
ATOM     99  C   UNL     1      49.261  81.070  39.923  0.00  0.00    +0.000 C 
BRANCH  99 100
ATOM    100  C   UNL     1      49.862  82.094  40.852  0.00  0.00    +0.000 C 
BRANCH 100 101
ATOM    101  C   UNL     1      51.233  82.417  40.255  0.00  0.00    +0.000 C 
BRANCH 101 103
ATOM    102  C   UNL     1      53.139  83.945  40.524  0.00  0.00    +0.000 C 
ATOM    103  C   UNL     1      51.909  83.399  41.183  0.00  0.00    +0.000 C 
ENDBRANCH 101 103
ENDBRANCH 100 101
ENDBRANCH  99 100
ENDBRANCH  98  99
ENDBRANCH  97  98
ENDBRANCH  96  97
ENDBRANCH  95  96
ENDBRANCH  92  95
ENDBRANCH  84  94
BRANCH  87 104
ATOM    104  C   UNL     1      43.379  73.022  43.161  0.00  0.00    +0.214 C 
ATOM    105  O   UNL     1      44.033  71.845  42.880  0.00  0.00    -0.218 OA
ENDBRANCH  87 104
ENDBRANCH  83  89
ENDBRANCH   1  83
BRANCH  14 106
ATOM    106  O   UNL     1      53.741  71.115  43.700  0.00  0.00    -0.325 OA
BRANCH 106 107
ATOM    107  C   UNL     1      54.302  69.886  43.926  0.00  0.00    +0.259 C 
ATOM    108  C   UNL     1      55.321  69.614  42.852  0.00  0.00    +0.184 C 
ATOM    109  C   UNL     1      55.764  68.167  42.979  0.00  0.00    +0.209 C 
ATOM    110  C   UNL     1      55.234  67.546  44.219  0.00  0.00    +0.214 C 
ATOM    111  C   UNL     1      55.095  68.421  45.407  0.00  0.00    +0.183 C 
ATOM    112  O   UNL     1      55.046  69.806  45.130  0.00  0.00    -0.326 OA
ATOM    113  O   UNL     1      56.093  66.455  44.508  0.00  0.00    -0.218 OA
ATOM    114  O   UNL     1      57.153  68.096  42.856  0.00  0.00    -0.218 OA
BRANCH 108 115
ATOM    115  N   UNL     1      56.490  70.479  43.075  0.00  0.00    -0.199 NA
ATOM    116  C   UNL     1      56.678  71.662  42.337  0.00  0.00    +0.242 C 
ATOM    117  O   UNL     1      56.528  72.781  42.850  0.00  0.00    -0.273 OA
ATOM    118  C   UNL     1      57.071  71.547  40.903  0.00  0.00    +0.096 C 
ENDBRANCH 108 115
BRANCH 111 119
ATOM    119  C   UNL     1      56.036  68.087  46.531  0.00  0.00    +0.214 C 
ATOM    120  O   UNL     1      55.497  67.335  47.541  0.00  0.00    -0.218 OA
ENDBRANCH 111 119
ENDBRANCH 106 107
ENDBRANCH  14 106
BRANCH  22 121
ATOM    121  O   UNL     1      54.467  74.214  51.905  0.00  0.00    -0.450 OA
BRANCH 121 122
ATOM    122  C   UNL     1      54.602  75.501  52.405  0.00  0.00    +0.322 C 
ATOM    123  C   UNL     1      53.219  76.132  52.665  0.00  0.00    +0.254 C 
ATOM    124  C   UNL     1      53.410  77.465  53.287  0.00  0.00    +0.221 C 
ATOM    125  C   UNL     1      54.831  77.930  53.282  0.00  0.00    +0.215 C 
ATOM    126  C   UNL     1      55.573  77.538  52.022  0.00  0.00    +0.185 C 
ATOM    127  O   UNL     1      55.178  76.360  51.447  0.00  0.00    -0.316 OA
ATOM    128  O   UNL     1      55.529  77.633  54.445  0.00  0.00    -0.218 OA
ATOM    129  O   UNL     1      52.983  77.382  54.632  0.00  0.00    -0.217 OA
ATOM    130  O   UNL     1      52.556  76.313  51.448  0.00  0.00    -0.213 OA
BRANCH 126 131
ATOM    131  C   UNL     1      55.528  78.693  51.019  0.00  0.00    +0.214 C 
ATOM    132  O   UNL     1      56.784  79.212  50.800  0.00  0.00    -0.218 OA
ENDBRANCH 126 131
ENDBRANCH 121 122
ENDBRANCH  22 121
TORSDOF 20
