REMARK  Name = Telbivudine
REMARK  2 active torsions:
REMARK  status: ('A' for Active; 'I' for Inactive)
REMARK    1  A    between atoms: N1_4  and  C1*_10
REMARK    2  A    between atoms: C4*_13  and  C5*_15
REMARK                            x       y       z     vdW  Elec       q    Type
REMARK                         _______ _______ _______ _____ _____    ______ ____
ROOT
ATOM      1  C5M   T A   1      47.265  82.333  39.991  0.00  0.00    +0.038 C 
ATOM      2  C5    T A   1      46.199  81.351  39.675  0.00  0.00    +0.053 A 
ATOM      3  C6    T A   1      45.987  80.197  40.395  0.00  0.00    +0.082 A 
ATOM      4  N1    T A   1      45.026  79.331  40.093  0.00  0.00    -0.256 N 
ATOM      5  C2    T A   1      44.236  79.618  39.033  0.00  0.00    +0.354 A 
ATOM      6  O2    T A   1      43.298  78.824  38.699  0.00  0.00    -0.244 OA
ATOM      7  N3    T A   1      44.395  80.726  38.297  0.00  0.00    -0.153 NA
ATOM      8  C4    T A   1      45.355  81.587  38.599  0.00  0.00    +0.280 A 
ATOM      9  O4    T A   1      45.511  82.635  37.909  0.00  0.00    -0.265 OA
ENDROOT
BRANCH   4  10
ATOM     10  C1*   T A   1      44.751  78.111  40.802  0.00  0.00    +0.211 C 
ATOM     11  C2*   T A   1      45.720  76.994  40.402  0.00  0.00    +0.089 C 
ATOM     12  C3*   T A   1      45.403  75.984  41.507  0.00  0.00    +0.186 C 
ATOM     13  C4*   T A   1      44.813  76.874  42.575  0.00  0.00    +0.180 C 
ATOM     14  O4*   T A   1      44.982  78.186  42.153  0.00  0.00    -0.332 OA
ATOM     15  O3*   T A   1      44.416  75.136  40.965  0.00  0.00    -0.220 OA
BRANCH  13  16
ATOM     16  C5*   T A   1      45.527  76.606  43.884  0.00  0.00    +0.214 C 
ATOM     17  O5*   T A   1      46.757  77.302  43.880  0.00  0.00    -0.218 OA
ENDBRANCH  13  16
ENDBRANCH   4  10
TORSDOF 2
