REMARK  Name = Telithromycin
REMARK  11 active torsions:
REMARK  status: ('A' for Active; 'I' for Inactive)
REMARK    1  A    between atoms: C_2  and  C_3
REMARK    2  A    between atoms: C_11  and  O_35
REMARK    3  A    between atoms: C_12  and  O_22
REMARK    4  A    between atoms: O_22  and  C_23
REMARK    5  A    between atoms: C_25  and  N_30
REMARK    6  A    between atoms: N_39  and  C_43
REMARK    7  A    between atoms: C_43  and  C_44
REMARK    8  A    between atoms: C_44  and  C_45
REMARK    9  A    between atoms: C_45  and  C_46
REMARK   10  A    between atoms: C_46  and  N_47
REMARK   11  A    between atoms: C_49  and  C_52
REMARK                            x       y       z     vdW  Elec       q    Type
REMARK                         _______ _______ _______ _____ _____    ______ ____
ROOT
ATOM      1  C   UNL     1      48.250  83.460  44.625  0.00  0.00    +0.207 C 
ATOM      2  C   UNL     1      48.116  82.687  43.341  0.00  0.00    +0.191 C 
ATOM      3  C   UNL     1      49.183  82.873  42.308  0.00  0.00    +0.125 C 
ATOM      4  C   UNL     1      50.040  81.635  42.138  0.00  0.00    +0.079 C 
ATOM      5  C   UNL     1      51.137  81.489  43.096  0.00  0.00    +0.152 C 
ATOM      6  O   UNL     1      51.109  80.520  43.827  0.00  0.00    -0.296 OA
ATOM      7  C   UNL     1      52.295  82.385  43.287  0.00  0.00    +0.060 C 
ATOM      8  C   UNL     1      52.633  82.679  44.723  0.00  0.00    +0.037 C 
ATOM      9  C   UNL     1      53.438  81.610  45.446  0.00  0.00    +0.119 C 
ATOM     10  C   UNL     1      53.164  81.575  46.920  0.00  0.00    +0.149 C 
ATOM     11  C   UNL     1      52.476  82.753  47.496  0.00  0.00    +0.088 C 
ATOM     12  C   UNL     1      51.050  82.704  47.745  0.00  0.00    +0.163 C 
ATOM     13  O   UNL     1      50.547  83.602  48.446  0.00  0.00    -0.295 OA
ATOM     14  C   UNL     1      50.046  81.719  47.285  0.00  0.00    +0.156 C 
ATOM     15  C   UNL     1      48.738  82.379  46.906  0.00  0.00    +0.324 C 
ATOM     16  O   UNL     1      48.024  82.589  47.974  0.00  0.00    -0.250 OA
ATOM     17  O   UNL     1      48.285  82.725  45.756  0.00  0.00    -0.448 OA
ATOM     18  C   UNL     1      49.726  80.666  48.283  0.00  0.00    +0.020 C 
ATOM     19  C   UNL     1      53.130  83.322  48.740  0.00  0.00    +0.010 C 
ATOM     20  C   UNL     1      54.907  82.044  45.307  0.00  0.00    +0.032 C 
ATOM     21  C   UNL     1      53.523  82.051  42.517  0.00  0.00    +0.008 C 
ATOM     22  C   UNL     1      50.423  81.317  40.725  0.00  0.00    +0.010 C 
ATOM     23  N   UNL     1      48.464  83.176  41.060  0.00  0.00    -0.244 N 
ATOM     24  C   UNL     1      47.109  82.761  41.346  0.00  0.00    +0.405 C 
ATOM     25  O   UNL     1      46.303  82.190  40.571  0.00  0.00    -0.226 OA
ATOM     26  O   UNL     1      46.910  83.148  42.688  0.00  0.00    -0.436 OA
ATOM     27  C   UNL     1      47.735  81.241  43.599  0.00  0.00    +0.049 C 
ENDROOT
BRANCH   1  29
ATOM     28  C   UNL     1      48.371  85.900  44.349  0.00  0.00    +0.004 C 
ATOM     29  C   UNL     1      49.195  84.643  44.533  0.00  0.00    +0.047 C 
ENDBRANCH   1  29
BRANCH   9  30
ATOM     30  O   UNL     1      53.365  80.467  44.734  0.00  0.00    -0.353 OA
ATOM     31  C   UNL     1      54.317  79.555  44.629  0.00  0.00    +0.174 C 
ENDBRANCH   9  30
BRANCH  10  32
ATOM     32  O   UNL     1      54.336  81.286  47.591  0.00  0.00    -0.328 OA
BRANCH  32  33
ATOM     33  C   UNL     1      54.345  81.195  48.931  0.00  0.00    +0.268 C 
ATOM     34  C   UNL     1      55.289  82.180  49.568  0.00  0.00    +0.222 C 
ATOM     35  C   UNL     1      55.800  81.722  50.931  0.00  0.00    +0.096 C 
ATOM     36  C   UNL     1      54.793  80.874  51.669  0.00  0.00    +0.048 C 
ATOM     37  C   UNL     1      54.121  79.886  50.728  0.00  0.00    +0.119 C 
ATOM     38  O   UNL     1      54.731  79.942  49.449  0.00  0.00    -0.331 OA
ATOM     39  C   UNL     1      54.038  78.506  51.281  0.00  0.00    +0.032 C 
ATOM     40  O   UNL     1      56.361  82.395  48.731  0.00  0.00    -0.216 OA
BRANCH  35  41
ATOM     41  N   UNL     1      57.086  81.128  50.849  0.00  0.00    -0.269 NA
ATOM     42  C   UNL     1      58.000  81.892  50.049  0.00  0.00    +0.090 C 
ATOM     43  C   UNL     1      57.697  80.781  52.092  0.00  0.00    +0.090 C 
ENDBRANCH  35  41
ENDBRANCH  32  33
ENDBRANCH  10  32
BRANCH  23  44
ATOM     44  C   UNL     1      48.837  83.702  39.795  0.00  0.00    +0.097 C 
BRANCH  44  45
ATOM     45  C   UNL     1      48.795  82.729  38.637  0.00  0.00    +0.024 C 
BRANCH  45  46
ATOM     46  C   UNL     1      47.755  81.685  38.697  0.00  0.00    +0.026 C 
BRANCH  46  47
ATOM     47  C   UNL     1      46.514  82.109  37.984  0.00  0.00    +0.108 C 
BRANCH  47  48
ATOM     48  N   UNL     1      45.385  81.259  38.260  0.00  0.00    -0.308 N 
ATOM     49  C   UNL     1      45.261  80.101  38.909  0.00  0.00    +0.096 A 
ATOM     50  C   UNL     1      43.952  79.698  38.903  0.00  0.00    +0.102 A 
ATOM     51  N   UNL     1      43.288  80.636  38.239  0.00  0.00    -0.224 NA
ATOM     52  C   UNL     1      44.127  81.588  37.840  0.00  0.00    +0.179 A 
BRANCH  50  53
ATOM     53  C   UNL     1      43.363  78.495  39.480  0.00  0.00    +0.038 A 
ATOM     54  C   UNL     1      42.038  78.180  39.309  0.00  0.00    +0.100 A 
ATOM     55  N   UNL     1      41.482  77.075  39.819  0.00  0.00    -0.242 NA
ATOM     56  C   UNL     1      42.230  76.224  40.533  0.00  0.00    +0.099 A 
ATOM     57  C   UNL     1      43.564  76.499  40.731  0.00  0.00    +0.021 A 
ATOM     58  C   UNL     1      44.147  77.625  40.214  0.00  0.00    +0.005 A 
ENDBRANCH  50  53
ENDBRANCH  47  48
ENDBRANCH  46  47
ENDBRANCH  45  46
ENDBRANCH  44  45
ENDBRANCH  23  44
TORSDOF 11
