REMARK  Name = Telotristat_ethyl
REMARK  11 active torsions:
REMARK  status: ('A' for Active; 'I' for Inactive)
REMARK    1  A    between atoms: C_2  and  O_3
REMARK    2  A    between atoms: O_3  and  C_4
REMARK    3  A    between atoms: C_4  and  C_6
REMARK    4  A    between atoms: C_6  and  C_7
REMARK    5  A    between atoms: C_7  and  C_8
REMARK    6  A    between atoms: C_11  and  C_14
REMARK    7  A    between atoms: C_16  and  O_21
REMARK    8  A    between atoms: O_21  and  C_22
REMARK    9  A    between atoms: C_22  and  C_23
REMARK   10  A    between atoms: C_22  and  C_36
REMARK   11  A    between atoms: C_24  and  N_30
REMARK                            x       y       z     vdW  Elec       q    Type
REMARK                         _______ _______ _______ _____ _____    ______ ____
ROOT
ATOM      1  C   UNL     1      45.273  80.597  40.179  0.00  0.00    +0.089 A 
ATOM      2  C   UNL     1      45.878  80.812  41.397  0.00  0.00    +0.077 A 
ATOM      3  C   UNL     1      46.851  81.764  41.604  0.00  0.00    +0.229 A 
ATOM      4  N   UNL     1      47.175  82.492  40.484  0.00  0.00    -0.176 NA
ATOM      5  C   UNL     1      46.612  82.309  39.300  0.00  0.00    +0.259 A 
ATOM      6  N   UNL     1      45.666  81.372  39.133  0.00  0.00    -0.211 NA
ATOM      7  N   UNL     1      47.006  83.111  38.180  0.00  0.00    -0.086 NA
ENDROOT
BRANCH   1  11
ATOM      8  C   UNL     1      42.228  77.701  39.367  0.00  0.00    -0.020 A 
ATOM      9  C   UNL     1      43.164  77.484  40.355  0.00  0.00    -0.004 A 
ATOM     10  C   UNL     1      44.152  78.433  40.612  0.00  0.00    +0.001 A 
ATOM     11  C   UNL     1      44.249  79.613  39.913  0.00  0.00    +0.018 A 
ATOM     12  C   UNL     1      43.292  79.813  38.918  0.00  0.00    +0.001 A 
ATOM     13  C   UNL     1      42.316  78.881  38.660  0.00  0.00    -0.004 A 
BRANCH   8  14
ATOM     14  C   UNL     1      41.168  76.722  39.079  0.00  0.00    +0.057 C 
BRANCH  14  15
ATOM     15  C   UNL     1      40.241  77.131  37.957  0.00  0.00    +0.194 C 
ATOM     16  N   UNL     1      40.491  76.214  36.833  0.00  0.00    -0.121 NA
BRANCH  15  17
ATOM     17  C   UNL     1      38.841  77.005  38.383  0.00  0.00    +0.335 C 
ATOM     18  O   UNL     1      38.312  75.861  38.420  0.00  0.00    -0.248 OA
BRANCH  17  19
ATOM     19  O   UNL     1      38.088  78.135  38.747  0.00  0.00    -0.448 OA
BRANCH  19  21
ATOM     20  C   UNL     1      35.965  78.449  37.659  0.00  0.00    +0.051 C 
ATOM     21  C   UNL     1      36.679  77.939  38.873  0.00  0.00    +0.209 C 
ENDBRANCH  19  21
ENDBRANCH  17  19
ENDBRANCH  15  17
ENDBRANCH  14  15
ENDBRANCH   8  14
ENDBRANCH   1  11
BRANCH   3  22
ATOM     22  O   UNL     1      47.495  82.035  42.779  0.00  0.00    -0.450 OA
BRANCH  22  23
ATOM     23  C   UNL     1      48.623  82.804  42.894  0.00  0.00    +0.285 C 
BRANCH  23  24
ATOM     24  C   UNL     1      49.675  82.205  43.767  0.00  0.00    +0.044 A 
ATOM     25  C   UNL     1      51.017  82.200  43.462  0.00  0.00    +0.083 A 
ATOM     26  C   UNL     1      51.882  81.587  44.375  0.00  0.00    +0.030 A 
ATOM     27  C   UNL     1      51.461  81.003  45.537  0.00  0.00    +0.059 A 
ATOM     28  C   UNL     1      50.114  81.016  45.828  0.00  0.00    +0.011 A 
ATOM     29  C   UNL     1      49.245  81.617  44.938  0.00  0.00    +0.002 A 
ATOM     30 CL   UNL     1      52.591  80.238  46.665  0.00  0.00    -0.082 Cl
BRANCH  25  31
ATOM     31  N   UNL     1      51.516  82.798  42.275  0.00  0.00    -0.229 N 
ATOM     32  C   UNL     1      51.608  84.142  42.065  0.00  0.00    +0.102 A 
ATOM     33  C   UNL     1      52.136  84.395  40.824  0.00  0.00    +0.037 A 
ATOM     34  C   UNL     1      52.370  83.155  40.270  0.00  0.00    +0.081 A 
ATOM     35  N   UNL     1      51.987  82.258  41.166  0.00  0.00    -0.169 NA
ATOM     36  C   UNL     1      52.950  82.936  38.908  0.00  0.00    +0.054 C 
ENDBRANCH  25  31
ENDBRANCH  23  24
BRANCH  23  37
ATOM     37  C   UNL     1      48.340  84.203  43.431  0.00  0.00    +0.438 C 
ATOM     38  F   UNL     1      47.600  84.934  42.524  0.00  0.00    -0.166 F 
ATOM     39  F   UNL     1      49.515  84.862  43.711  0.00  0.00    -0.166 F 
ATOM     40  F   UNL     1      47.650  84.063  44.617  0.00  0.00    -0.166 F 
ENDBRANCH  23  37
ENDBRANCH  22  23
ENDBRANCH   3  22
TORSDOF 11
