REMARK  Name = Temozolomide
REMARK  1 active torsions:
REMARK  status: ('A' for Active; 'I' for Inactive)
REMARK    1  A    between atoms: C_8  and  C_12
REMARK                            x       y       z     vdW  Elec       q    Type
REMARK                         _______ _______ _______ _____ _____    ______ ____
ROOT
ATOM      1  C   UNL     1      44.905  76.791  42.996  0.00  0.00    +0.160 C 
ATOM      2  N   UNL     1      44.995  77.838  42.000  0.00  0.00    -0.182 N 
ATOM      3  C   UNL     1      44.166  77.856  40.940  0.00  0.00    +0.355 A 
ATOM      4  O   UNL     1      43.307  76.957  40.815  0.00  0.00    -0.244 OA
ATOM      5  N   UNL     1      44.277  78.857  40.018  0.00  0.00    -0.222 N 
ATOM      6  C   UNL     1      43.563  79.069  38.897  0.00  0.00    +0.188 A 
ATOM      7  N   UNL     1      44.051  80.176  38.337  0.00  0.00    -0.217 NA
ATOM      8  C   UNL     1      45.060  80.680  39.068  0.00  0.00    +0.176 A 
ATOM      9  C   UNL     1      45.197  79.828  40.144  0.00  0.00    +0.198 A 
ATOM     10  N   UNL     1      46.015  79.781  41.221  0.00  0.00    -0.110 NA
ATOM     11  N   UNL     1      45.895  78.805  42.105  0.00  0.00    -0.059 NA
ENDROOT
BRANCH   8  12
ATOM     12  C   UNL     1      45.863  81.878  38.807  0.00  0.00    +0.305 C 
ATOM     13  O   UNL     1      45.572  82.627  37.871  0.00  0.00    -0.265 OA
ATOM     14  N   UNL     1      46.973  82.188  39.618  0.00  0.00    -0.082 NA
ENDBRANCH   8  12
TORSDOF 1
