REMARK  Name = Temocillin_disodium
REMARK  6 active torsions:
REMARK  status: ('A' for Active; 'I' for Inactive)
REMARK    1  A    between atoms: C_3  and  C_24
REMARK    2  A    between atoms: C_7  and  N_10
REMARK    3  A    between atoms: C_7  and  O_22
REMARK    4  A    between atoms: C_11  and  C_13
REMARK    5  A    between atoms: C_13  and  C_14
REMARK    6  A    between atoms: C_13  and  C_19
REMARK                            x       y       z     vdW  Elec       q    Type
REMARK                         _______ _______ _______ _____ _____    ______ ____
ROOT
ATOM      1  C   UNL     1      52.564  84.219  41.945  0.00  0.00    +0.013 C 
ATOM      2  C   UNL     1      51.251  84.058  42.640  0.00  0.00    +0.068 C 
ATOM      3  C   UNL     1      51.043  82.689  43.250  0.00  0.00    +0.189 C 
ATOM      4  N   UNL     1      49.652  82.361  43.201  0.00  0.00    -0.256 N 
ATOM      5  C   UNL     1      49.107  82.534  41.867  0.00  0.00    +0.178 C 
ATOM      6  S   UNL     1      49.848  84.145  41.487  0.00  0.00    -0.116 S 
ATOM      7  C   UNL     1      47.710  82.517  42.356  0.00  0.00    +0.267 C 
ATOM      8  C   UNL     1      48.360  81.957  43.608  0.00  0.00    +0.274 C 
ATOM      9  O   UNL     1      47.828  81.368  44.582  0.00  0.00    -0.270 OA
ATOM     10  C   UNL     1      51.056  85.067  43.750  0.00  0.00    +0.013 C 
ENDROOT
BRANCH   7  11
ATOM     11  N   UNL     1      46.915  81.419  41.804  0.00  0.00    -0.170 NA
ATOM     12  C   UNL     1      46.415  81.414  40.468  0.00  0.00    +0.258 C 
ATOM     13  O   UNL     1      47.135  81.952  39.588  0.00  0.00    -0.272 OA
BRANCH  12  14
ATOM     14  C   UNL     1      45.104  80.803  40.115  0.00  0.00    +0.204 C 
BRANCH  14  15
ATOM     15  C   UNL     1      45.154  79.306  40.392  0.00  0.00    +0.004 A 
ATOM     16  C   UNL     1      45.084  78.820  41.664  0.00  0.00    +0.032 A 
ATOM     17  S   UNL     1      45.179  77.131  41.445  0.00  0.00    -0.086 S 
ATOM     18  C   UNL     1      45.304  77.077  39.752  0.00  0.00    +0.035 A 
ATOM     19  C   UNL     1      45.269  78.394  39.394  0.00  0.00    +0.004 A 
ENDBRANCH  14  15
BRANCH  14  20
ATOM     20  C   UNL     1      44.867  81.039  38.675  0.00  0.00    +0.377 C 
ATOM     21  O   UNL     1      45.683  81.742  38.038  0.00  0.00    -0.245 OA
ATOM     22  O   UNL     1      43.775  80.513  38.006  0.00  0.00    -0.245 OA
ENDBRANCH  14  20
ENDBRANCH  12  14
ENDBRANCH   7  11
BRANCH   3  23
ATOM     23  C   UNL     1      51.815  81.704  42.474  0.00  0.00    +0.383 C 
ATOM     24  O   UNL     1      53.050  81.587  42.591  0.00  0.00    -0.244 OA
ATOM     25  O   UNL     1      51.211  80.829  41.548  0.00  0.00    -0.244 OA
ENDBRANCH   3  23
BRANCH   7  26
ATOM     26  O   UNL     1      47.038  83.636  42.680  0.00  0.00    -0.328 OA
ATOM     27  C   UNL     1      46.553  83.835  43.921  0.00  0.00    +0.177 C 
ENDBRANCH   7  26
TORSDOF 6
