REMARK  Name = Temsirolimus
REMARK  11 active torsions:
REMARK  status: ('A' for Active; 'I' for Inactive)
REMARK    1  A    between atoms: C_7  and  O_72
REMARK    2  A    between atoms: C_19  and  O_67
REMARK    3  A    between atoms: C_27  and  C_44
REMARK    4  A    between atoms: C_44  and  C_46
REMARK    5  A    between atoms: C_46  and  C_47
REMARK    6  A    between atoms: C_50  and  O_55
REMARK    7  A    between atoms: C_51  and  O_53
REMARK    8  A    between atoms: O_55  and  C_56
REMARK    9  A    between atoms: C_56  and  C_58
REMARK   10  A    between atoms: C_58  and  C_60
REMARK   11  A    between atoms: C_58  and  C_62
REMARK                            x       y       z     vdW  Elec       q    Type
REMARK                         _______ _______ _______ _____ _____    ______ ____
ROOT
ATOM      1  C   UNL     1      46.283  83.404  42.905  0.00  0.00    +0.006 C 
ATOM      2  C   UNL     1      47.711  83.055  43.130  0.00  0.00    +0.062 C 
ATOM      3  C   UNL     1      47.803  82.382  44.477  0.00  0.00    +0.008 C 
ATOM      4  C   UNL     1      49.232  82.035  44.703  0.00  0.00    +0.030 C 
ATOM      5  C   UNL     1      49.633  81.088  43.544  0.00  0.00    +0.121 C 
ATOM      6  C   UNL     1      51.043  80.693  43.848  0.00  0.00    +0.063 C 
ATOM      7  C   UNL     1      51.693  79.831  42.807  0.00  0.00    +0.136 C 
ATOM      8  C   UNL     1      53.177  79.945  42.898  0.00  0.00    -0.017 C 
ATOM      9  C   UNL     1      54.070  79.028  43.060  0.00  0.00    -0.006 C 
ATOM     10  C   UNL     1      54.012  77.602  43.212  0.00  0.00    -0.001 C 
ATOM     11  C   UNL     1      53.428  76.781  44.047  0.00  0.00    -0.000 C 
ATOM     12  C   UNL     1      52.572  76.995  45.184  0.00  0.00    -0.005 C 
ATOM     13  C   UNL     1      51.295  76.896  45.393  0.00  0.00    -0.026 C 
ATOM     14  C   UNL     1      50.226  76.478  44.414  0.00  0.00    +0.022 C 
ATOM     15  C   UNL     1      49.987  75.029  44.512  0.00  0.00    +0.012 C 
ATOM     16  C   UNL     1      48.717  74.497  45.040  0.00  0.00    +0.061 C 
ATOM     17  C   UNL     1      47.665  74.313  43.988  0.00  0.00    +0.180 C 
ATOM     18  O   UNL     1      47.688  75.058  43.032  0.00  0.00    -0.293 OA
ATOM     19  C   UNL     1      46.649  73.252  44.138  0.00  0.00    +0.206 C 
ATOM     20  C   UNL     1      45.725  73.079  42.982  0.00  0.00    +0.204 C 
ATOM     21  C   UNL     1      46.016  73.938  41.807  0.00  0.00    -0.015 C 
ATOM     22  C   UNL     1      45.372  75.047  41.531  0.00  0.00    -0.025 C 
ATOM     23  C   UNL     1      44.273  75.675  42.266  0.00  0.00    +0.079 C 
ATOM     24  C   UNL     1      43.812  76.944  41.651  0.00  0.00    +0.158 C 
ATOM     25  O   UNL     1      42.633  77.210  41.819  0.00  0.00    -0.296 OA
ATOM     26  C   UNL     1      44.610  77.885  40.886  0.00  0.00    +0.108 C 
ATOM     27  C   UNL     1      43.690  78.745  39.960  0.00  0.00    +0.176 C 
ATOM     28  O   UNL     1      44.225  79.959  39.988  0.00  0.00    -0.451 OA
ATOM     29  C   UNL     1      44.235  81.265  40.054  0.00  0.00    +0.335 C 
ATOM     30  O   UNL     1      43.591  82.090  40.762  0.00  0.00    -0.248 OA
ATOM     31  C   UNL     1      45.182  81.955  39.120  0.00  0.00    +0.175 C 
ATOM     32  C   UNL     1      45.214  83.429  39.214  0.00  0.00    +0.031 C 
ATOM     33  C   UNL     1      46.308  83.905  38.248  0.00  0.00    +0.004 C 
ATOM     34  C   UNL     1      46.667  82.834  37.245  0.00  0.00    +0.022 C 
ATOM     35  C   UNL     1      47.246  81.589  37.878  0.00  0.00    +0.094 C 
ATOM     36  N   UNL     1      46.522  81.395  39.148  0.00  0.00    -0.265 N 
ATOM     37  C   UNL     1      47.143  80.703  40.203  0.00  0.00    +0.289 C 
ATOM     38  O   UNL     1      47.526  79.495  39.859  0.00  0.00    -0.267 OA
ATOM     39  C   UNL     1      47.408  81.126  41.567  0.00  0.00    +0.279 C 
ATOM     40  O   UNL     1      46.813  80.469  42.493  0.00  0.00    -0.281 OA
ATOM     41  C   UNL     1      48.291  82.232  42.007  0.00  0.00    +0.279 C 
ATOM     42  O   UNL     1      49.539  81.706  42.338  0.00  0.00    -0.329 OA
ATOM     43  O   UNL     1      48.542  83.125  40.964  0.00  0.00    -0.187 OA
ATOM     44  C   UNL     1      44.624  76.066  43.708  0.00  0.00    +0.012 C 
ATOM     45  C   UNL     1      47.131  73.439  40.903  0.00  0.00    +0.029 C 
ATOM     46  O   UNL     1      45.808  71.715  42.593  0.00  0.00    -0.216 OA
ATOM     47  C   UNL     1      48.214  75.066  46.318  0.00  0.00    +0.008 C 
ATOM     48  C   UNL     1      49.097  77.416  44.504  0.00  0.00    +0.005 C 
ATOM     49  C   UNL     1      53.668  81.384  42.773  0.00  0.00    +0.029 C 
ENDROOT
BRANCH  27  50
ATOM     50  C   UNL     1      43.621  78.059  38.601  0.00  0.00    +0.041 C 
ATOM     51  C   UNL     1      45.004  77.800  38.052  0.00  0.00    +0.004 C 
BRANCH  50  52
ATOM     52  C   UNL     1      42.629  77.020  38.400  0.00  0.00    +0.004 C 
BRANCH  52  53
ATOM     53  C   UNL     1      41.316  77.215  37.767  0.00  0.00    +0.003 C 
ATOM     54  C   UNL     1      40.130  77.523  38.573  0.00  0.00    +0.004 C 
ATOM     55  C   UNL     1      38.829  77.571  37.795  0.00  0.00    +0.046 C 
ATOM     56  C   UNL     1      38.657  76.328  36.973  0.00  0.00    +0.196 C 
ATOM     57  C   UNL     1      39.770  76.396  35.949  0.00  0.00    +0.155 C 
ATOM     58  C   UNL     1      41.105  76.264  36.614  0.00  0.00    +0.033 C 
BRANCH  57  59
ATOM     59  O   UNL     1      39.654  75.459  34.953  0.00  0.00    -0.350 OA
ATOM     60  C   UNL     1      40.910  74.940  34.575  0.00  0.00    +0.174 C 
ENDBRANCH  57  59
BRANCH  56  61
ATOM     61  O   UNL     1      37.393  76.231  36.382  0.00  0.00    -0.450 OA
BRANCH  61  62
ATOM     62  C   UNL     1      36.301  75.832  37.134  0.00  0.00    +0.321 C 
ATOM     63  O   UNL     1      36.481  75.486  38.330  0.00  0.00    -0.250 OA
BRANCH  62  64
ATOM     64  C   UNL     1      34.927  75.810  36.544  0.00  0.00    +0.150 C 
ATOM     65  C   UNL     1      33.978  76.503  37.477  0.00  0.00    +0.016 C 
BRANCH  64  66
ATOM     66  C   UNL     1      34.428  74.401  36.322  0.00  0.00    +0.195 C 
ATOM     67  O   UNL     1      34.599  73.682  37.496  0.00  0.00    -0.220 OA
ENDBRANCH  64  66
BRANCH  64  68
ATOM     68  C   UNL     1      34.910  76.589  35.226  0.00  0.00    +0.195 C 
ATOM     69  O   UNL     1      35.373  75.702  34.227  0.00  0.00    -0.220 OA
ENDBRANCH  64  68
ENDBRANCH  62  64
ENDBRANCH  61  62
ENDBRANCH  56  61
ENDBRANCH  52  53
ENDBRANCH  50  52
ENDBRANCH  27  50
BRANCH  19  70
ATOM     70  O   UNL     1      47.273  72.048  44.480  0.00  0.00    -0.343 OA
ATOM     71  C   UNL     1      47.692  71.991  45.783  0.00  0.00    +0.175 C 
ENDBRANCH  19  70
BRANCH   7  72
ATOM     72  O   UNL     1      51.237  80.247  41.556  0.00  0.00    -0.349 OA
ATOM     73  C   UNL     1      51.445  81.610  41.385  0.00  0.00    +0.174 C 
ENDBRANCH   7  72
TORSDOF 11
