REMARK  Name = Tenapanor
REMARK  29 active torsions:
REMARK  status: ('A' for Active; 'I' for Inactive)
REMARK    1  A    between atoms: C_4  and  C_14
REMARK    2  A    between atoms: C_16  and  S_20
REMARK    3  A    between atoms: S_20  and  N_23
REMARK    4  A    between atoms: N_23  and  C_24
REMARK    5  A    between atoms: C_24  and  C_25
REMARK    6  A    between atoms: C_25  and  O_26
REMARK    7  A    between atoms: O_26  and  C_27
REMARK    8  A    between atoms: C_27  and  C_28
REMARK    9  A    between atoms: C_28  and  O_29
REMARK   10  A    between atoms: O_29  and  C_30
REMARK   11  A    between atoms: C_30  and  C_31
REMARK   12  A    between atoms: C_31  and  N_32
REMARK   13  A    between atoms: N_35  and  C_36
REMARK   14  A    between atoms: C_36  and  C_37
REMARK   15  A    between atoms: C_37  and  C_38
REMARK   16  A    between atoms: C_38  and  C_39
REMARK   17  A    between atoms: C_39  and  N_40
REMARK   18  A    between atoms: N_43  and  C_44
REMARK   19  A    between atoms: C_44  and  C_45
REMARK   20  A    between atoms: C_45  and  O_46
REMARK   21  A    between atoms: O_46  and  C_47
REMARK   22  A    between atoms: C_47  and  C_48
REMARK   23  A    between atoms: C_48  and  O_49
REMARK   24  A    between atoms: O_49  and  C_50
REMARK   25  A    between atoms: C_50  and  C_51
REMARK   26  A    between atoms: C_51  and  N_52
REMARK   27  A    between atoms: N_52  and  S_53
REMARK   28  A    between atoms: S_53  and  C_56
REMARK   29  A    between atoms: C_60  and  C_62
REMARK                            x       y       z     vdW  Elec       q    Type
REMARK                         _______ _______ _______ _____ _____    ______ ____
ROOT
ATOM      1  C   UNL     1      41.243  77.720  38.134  0.00  0.00    +0.025 C 
ENDROOT
BRANCH   1   2
ATOM      2  C   UNL     1      42.487  78.057  38.963  0.00  0.00    +0.025 C 
BRANCH   2   3
ATOM      3  C   UNL     1      43.151  79.395  38.625  0.00  0.00    +0.117 C 
BRANCH   3   4
ATOM      4  N   UNL     1      44.319  79.615  39.451  0.00  0.00    -0.187 NA
ATOM      5  C   UNL     1      45.017  80.790  39.336  0.00  0.00    +0.339 C 
ATOM      6  O   UNL     1      44.658  81.754  38.671  0.00  0.00    -0.249 OA
ATOM      7  N   UNL     1      46.215  80.731  40.003  0.00  0.00    -0.185 NA
BRANCH   7   8
ATOM      8  C   UNL     1      46.766  81.954  40.565  0.00  0.00    +0.149 C 
BRANCH   8   9
ATOM      9  C   UNL     1      48.056  81.702  41.354  0.00  0.00    +0.166 C 
BRANCH   9  10
ATOM     10  O   UNL     1      48.473  82.922  41.985  0.00  0.00    -0.349 OA
BRANCH  10  11
ATOM     11  C   UNL     1      49.691  83.432  41.432  0.00  0.00    +0.174 C 
BRANCH  11  12
ATOM     12  C   UNL     1      50.713  83.603  42.553  0.00  0.00    +0.174 C 
BRANCH  12  13
ATOM     13  O   UNL     1      51.431  82.370  42.685  0.00  0.00    -0.350 OA
BRANCH  13  14
ATOM     14  C   UNL     1      52.553  82.494  43.571  0.00  0.00    +0.163 C 
BRANCH  14  15
ATOM     15  C   UNL     1      52.008  82.699  44.986  0.00  0.00    +0.147 C 
BRANCH  15  16
ATOM     16  N   UNL     1      53.115  83.201  45.837  0.00  0.00    -0.075 NA
BRANCH  16  17
ATOM     17  S   UNL     1      52.775  83.527  47.454  0.00  0.00    +0.077 S 
ATOM     18  O   UNL     1      51.381  83.910  47.521  0.00  0.00    -0.152 OA
ATOM     19  O   UNL     1      53.828  84.380  47.961  0.00  0.00    -0.152 OA
BRANCH  17  20
ATOM     20  C   UNL     1      52.929  81.928  48.209  0.00  0.00    +0.123 A 
ATOM     21  C   UNL     1      52.055  80.910  47.824  0.00  0.00    +0.020 A 
ATOM     22  C   UNL     1      52.196  79.651  48.390  0.00  0.00    +0.001 A 
ATOM     23  C   UNL     1      53.188  79.428  49.353  0.00  0.00    -0.004 A 
ATOM     24  C   UNL     1      54.063  80.449  49.767  0.00  0.00    -0.016 A 
ATOM     25  C   UNL     1      53.918  81.708  49.174  0.00  0.00    +0.016 A 
BRANCH  24  26
ATOM     26  C   UNL     1      55.092  80.155  50.864  0.00  0.00    +0.060 C 
ATOM     27  C   UNL     1      55.119  78.674  51.357  0.00  0.00    +0.081 C 
ATOM     28  N   UNL     1      56.188  77.793  50.850  0.00  0.00    -0.267 NA
ATOM     29  C   UNL     1      56.902  78.289  49.669  0.00  0.00    +0.100 C 
ATOM     30  C   UNL     1      57.362  79.718  49.841  0.00  0.00    +0.001 A 
ATOM     31  C   UNL     1      56.476  80.627  50.456  0.00  0.00    -0.018 A 
ATOM     32  C   UNL     1      56.861  81.961  50.643  0.00  0.00    +0.007 A 
ATOM     33  C   UNL     1      58.097  82.405  50.191  0.00  0.00    +0.058 A 
ATOM     34  C   UNL     1      58.962  81.527  49.543  0.00  0.00    +0.022 A 
ATOM     35  C   UNL     1      58.590  80.194  49.357  0.00  0.00    +0.056 A 
ATOM     36 CL   UNL     1      59.700  79.179  48.504  0.00  0.00    -0.083 Cl
ATOM     37 CL   UNL     1      58.555  84.045  50.418  0.00  0.00    -0.082 Cl
ATOM     38  C   UNL     1      55.707  76.429  50.651  0.00  0.00    +0.090 C 
ENDBRANCH  24  26
ENDBRANCH  17  20
ENDBRANCH  16  17
ENDBRANCH  15  16
ENDBRANCH  14  15
ENDBRANCH  13  14
ENDBRANCH  12  13
ENDBRANCH  11  12
ENDBRANCH  10  11
ENDBRANCH   9  10
ENDBRANCH   8   9
ENDBRANCH   7   8
ENDBRANCH   3   4
ENDBRANCH   2   3
ENDBRANCH   1   2
BRANCH   1  39
ATOM     39  C   UNL     1      39.926  78.131  38.787  0.00  0.00    +0.117 C 
BRANCH  39  43
ATOM     40  N   UNL     1      36.979  76.396  37.734  0.00  0.00    -0.185 NA
ATOM     41  C   UNL     1      38.305  76.465  38.066  0.00  0.00    +0.339 C 
ATOM     42  O   UNL     1      38.972  75.502  38.420  0.00  0.00    -0.249 OA
ATOM     43  N   UNL     1      38.784  77.746  37.988  0.00  0.00    -0.187 NA
BRANCH  40  44
ATOM     44  C   UNL     1      36.432  75.252  37.031  0.00  0.00    +0.149 C 
BRANCH  44  45
ATOM     45  C   UNL     1      34.925  75.392  36.829  0.00  0.00    +0.166 C 
BRANCH  45  46
ATOM     46  O   UNL     1      34.422  74.184  36.244  0.00  0.00    -0.349 OA
BRANCH  46  47
ATOM     47  C   UNL     1      33.380  73.584  37.031  0.00  0.00    +0.174 C 
BRANCH  47  48
ATOM     48  C   UNL     1      32.758  72.357  36.361  0.00  0.00    +0.174 C 
BRANCH  48  49
ATOM     49  O   UNL     1      31.341  72.364  36.557  0.00  0.00    -0.350 OA
BRANCH  49  50
ATOM     50  C   UNL     1      30.647  72.790  35.376  0.00  0.00    +0.163 C 
BRANCH  50  51
ATOM     51  C   UNL     1      29.954  71.574  34.764  0.00  0.00    +0.147 C 
BRANCH  51  52
ATOM     52  N   UNL     1      29.092  72.015  33.650  0.00  0.00    -0.075 NA
BRANCH  52  53
ATOM     53  S   UNL     1      28.416  70.844  32.651  0.00  0.00    +0.077 S 
ATOM     54  O   UNL     1      27.725  69.894  33.496  0.00  0.00    -0.152 OA
ATOM     55  O   UNL     1      27.743  71.520  31.565  0.00  0.00    -0.152 OA
BRANCH  53  58
ATOM     56  C   UNL     1      31.989  70.172  30.841  0.00  0.00    -0.016 A 
ATOM     57  C   UNL     1      30.874  70.808  31.402  0.00  0.00    +0.016 A 
ATOM     58  C   UNL     1      29.854  70.043  31.983  0.00  0.00    +0.123 A 
ATOM     59  C   UNL     1      29.956  68.648  32.066  0.00  0.00    +0.020 A 
ATOM     60  C   UNL     1      31.061  68.009  31.515  0.00  0.00    +0.001 A 
ATOM     61  C   UNL     1      32.058  68.764  30.899  0.00  0.00    -0.004 A 
BRANCH  56  65
ATOM     62  C   UNL     1      34.026  74.552  29.699  0.00  0.00    +0.090 C 
ATOM     63  N   UNL     1      34.120  73.094  29.626  0.00  0.00    -0.267 NA
ATOM     64  C   UNL     1      33.151  72.449  30.521  0.00  0.00    +0.081 C 
ATOM     65  C   UNL     1      33.155  70.930  30.207  0.00  0.00    +0.060 C 
ATOM     66  C   UNL     1      34.546  70.351  30.460  0.00  0.00    -0.018 A 
ATOM     67  C   UNL     1      35.669  71.189  30.259  0.00  0.00    +0.001 A 
ATOM     68  C   UNL     1      35.496  72.669  29.953  0.00  0.00    +0.100 C 
ATOM     69  C   UNL     1      36.962  70.648  30.422  0.00  0.00    +0.056 A 
ATOM     70  C   UNL     1      37.148  69.308  30.758  0.00  0.00    +0.022 A 
ATOM     71  C   UNL     1      36.040  68.496  30.941  0.00  0.00    +0.058 A 
ATOM     72  C   UNL     1      34.752  69.001  30.796  0.00  0.00    +0.007 A 
ATOM     73 CL   UNL     1      36.266  66.839  31.371  0.00  0.00    -0.082 Cl
ATOM     74 CL   UNL     1      38.385  71.614  30.211  0.00  0.00    -0.083 Cl
ENDBRANCH  56  65
ENDBRANCH  53  58
ENDBRANCH  52  53
ENDBRANCH  51  52
ENDBRANCH  50  51
ENDBRANCH  49  50
ENDBRANCH  48  49
ENDBRANCH  47  48
ENDBRANCH  46  47
ENDBRANCH  45  46
ENDBRANCH  44  45
ENDBRANCH  40  44
ENDBRANCH  39  43
ENDBRANCH   1  39
TORSDOF 29
