REMARK  Name = Teniposide
REMARK  6 active torsions:
REMARK  status: ('A' for Active; 'I' for Inactive)
REMARK    1  A    between atoms: O_2  and  C_3
REMARK    2  A    between atoms: C_5  and  C_12
REMARK    3  A    between atoms: C_7  and  O_10
REMARK    4  A    between atoms: C_19  and  O_29
REMARK    5  A    between atoms: O_29  and  C_30
REMARK    6  A    between atoms: C_38  and  C_40
REMARK                            x       y       z     vdW  Elec       q    Type
REMARK                         _______ _______ _______ _____ _____    ______ ____
ROOT
ATOM      1  C   UNL     1      46.442  81.316  40.923  0.00  0.00    +0.055 C 
ATOM      2  C   UNL     1      46.552  81.228  39.418  0.00  0.00    +0.113 C 
ATOM      3  C   UNL     1      45.266  80.814  38.796  0.00  0.00    +0.086 C 
ATOM      4  C   UNL     1      45.703  79.877  37.688  0.00  0.00    +0.212 C 
ATOM      5  O   UNL     1      47.108  79.701  37.831  0.00  0.00    -0.448 OA
ATOM      6  C   UNL     1      47.478  80.091  39.122  0.00  0.00    +0.317 C 
ATOM      7  O   UNL     1      48.363  79.619  39.865  0.00  0.00    -0.250 OA
ATOM      8  C   UNL     1      44.270  80.161  39.741  0.00  0.00    +0.144 C 
ATOM      9  C   UNL     1      45.001  79.358  40.730  0.00  0.00    +0.004 A 
ATOM     10  C   UNL     1      44.637  78.068  41.070  0.00  0.00    +0.038 A 
ATOM     11  C   UNL     1      45.334  77.323  41.987  0.00  0.00    +0.176 A 
ATOM     12  C   UNL     1      46.428  77.870  42.590  0.00  0.00    +0.176 A 
ATOM     13  C   UNL     1      46.807  79.182  42.249  0.00  0.00    +0.036 A 
ATOM     14  C   UNL     1      46.127  79.933  41.343  0.00  0.00    -0.016 A 
ATOM     15  O   UNL     1      46.939  76.926  43.457  0.00  0.00    -0.435 OA
ATOM     16  C   UNL     1      46.361  75.644  43.152  0.00  0.00    +0.429 C 
ATOM     17  O   UNL     1      45.167  76.013  42.495  0.00  0.00    -0.435 OA
ENDROOT
BRANCH   1  20
ATOM     18  C   UNL     1      49.956  81.734  42.167  0.00  0.00    +0.180 A 
ATOM     19  C   UNL     1      48.834  81.188  41.574  0.00  0.00    +0.036 A 
ATOM     20  C   UNL     1      47.654  81.892  41.549  0.00  0.00    -0.012 A 
ATOM     21  C   UNL     1      47.563  83.146  42.109  0.00  0.00    +0.036 A 
ATOM     22  C   UNL     1      48.663  83.701  42.703  0.00  0.00    +0.180 A 
ATOM     23  C   UNL     1      49.881  82.980  42.731  0.00  0.00    +0.263 A 
ATOM     24  O   UNL     1      51.026  83.511  43.325  0.00  0.00    -0.280 OA
BRANCH  18  26
ATOM     25  C   UNL     1      51.247  79.713  41.581  0.00  0.00    +0.253 C 
ATOM     26  O   UNL     1      51.116  80.976  42.158  0.00  0.00    -0.468 OA
ENDBRANCH  18  26
BRANCH  22  27
ATOM     27  O   UNL     1      48.754  84.928  43.313  0.00  0.00    -0.468 OA
ATOM     28  C   UNL     1      47.658  85.838  43.203  0.00  0.00    +0.253 C 
ENDBRANCH  22  27
ENDBRANCH   1  20
BRANCH   8  29
ATOM     29  O   UNL     1      43.438  79.311  38.998  0.00  0.00    -0.326 OA
BRANCH  29  30
ATOM     30  C   UNL     1      42.644  78.487  39.768  0.00  0.00    +0.270 C 
ATOM     31  C   UNL     1      43.022  77.029  39.736  0.00  0.00    +0.240 C 
ATOM     32  C   UNL     1      41.745  76.193  39.783  0.00  0.00    +0.217 C 
ATOM     33  C   UNL     1      41.054  76.386  38.431  0.00  0.00    +0.181 C 
ATOM     34  C   UNL     1      41.309  77.801  38.031  0.00  0.00    +0.177 C 
ATOM     35  O   UNL     1      41.340  78.637  39.159  0.00  0.00    -0.326 OA
ATOM     36  C   UNL     1      40.236  78.298  37.114  0.00  0.00    +0.177 C 
ATOM     37  O   UNL     1      38.970  77.848  37.371  0.00  0.00    -0.324 OA
ATOM     38  C   UNL     1      38.902  76.476  37.556  0.00  0.00    +0.266 C 
ATOM     39  O   UNL     1      39.769  75.953  38.454  0.00  0.00    -0.324 OA
ATOM     40  O   UNL     1      40.966  76.706  40.816  0.00  0.00    -0.218 OA
ATOM     41  O   UNL     1      43.821  76.670  38.671  0.00  0.00    -0.215 OA
BRANCH  38  42
ATOM     42  C   UNL     1      39.028  75.773  36.229  0.00  0.00    +0.063 A 
ATOM     43  C   UNL     1      39.189  76.317  34.991  0.00  0.00    +0.008 A 
ATOM     44  C   UNL     1      39.269  75.464  33.944  0.00  0.00    +0.007 A 
ATOM     45  C   UNL     1      39.181  74.130  34.224  0.00  0.00    +0.035 A 
ATOM     46  S   UNL     1      38.991  74.095  35.917  0.00  0.00    -0.086 S 
ENDBRANCH  38  42
ENDBRANCH  29  30
ENDBRANCH   8  29
TORSDOF 6
