REMARK  Name = Tenoxicam
REMARK  2 active torsions:
REMARK  status: ('A' for Active; 'I' for Inactive)
REMARK    1  A    between atoms: C_3  and  C_14
REMARK    2  A    between atoms: N_16  and  C_17
REMARK                            x       y       z     vdW  Elec       q    Type
REMARK                         _______ _______ _______ _____ _____    ______ ____
ROOT
ATOM      1  C   UNL     1      46.563  83.484  43.511  0.00  0.00    +0.139 C 
ATOM      2  N   UNL     1      47.880  83.413  42.882  0.00  0.00    -0.181 N 
ATOM      3  C   UNL     1      48.161  82.420  41.893  0.00  0.00    +0.163 C 
ATOM      4  C   UNL     1      49.362  82.206  41.452  0.00  0.00    +0.222 C 
ATOM      5  C   UNL     1      50.579  82.929  41.876  0.00  0.00    +0.089 A 
ATOM      6  C   UNL     1      50.642  83.931  42.778  0.00  0.00    +0.135 A 
ATOM      7  S   UNL     1      49.071  84.519  43.379  0.00  0.00    +0.077 S 
ATOM      8  O   UNL     1      49.123  84.712  44.866  0.00  0.00    -0.150 OA
ATOM      9  O   UNL     1      48.772  85.851  42.733  0.00  0.00    -0.150 OA
ATOM     10  C   UNL     1      51.857  84.427  43.089  0.00  0.00    +0.028 A 
ATOM     11  C   UNL     1      52.944  83.885  42.470  0.00  0.00    +0.037 A 
ATOM     12  S   UNL     1      52.252  82.700  41.472  0.00  0.00    -0.082 S 
ATOM     13  O   UNL     1      49.594  81.228  40.498  0.00  0.00    -0.284 OA
ENDROOT
BRANCH   3  14
ATOM     14  C   UNL     1      46.997  81.677  41.411  0.00  0.00    +0.288 C 
ATOM     15  O   UNL     1      46.034  81.375  42.220  0.00  0.00    -0.266 OA
ATOM     16  N   UNL     1      46.766  81.218  40.108  0.00  0.00    -0.155 NA
BRANCH  16  17
ATOM     17  C   UNL     1      45.663  80.336  39.791  0.00  0.00    +0.155 A 
ATOM     18  C   UNL     1      45.422  79.183  40.481  0.00  0.00    +0.036 A 
ATOM     19  C   UNL     1      44.352  78.376  40.134  0.00  0.00    +0.005 A 
ATOM     20  C   UNL     1      43.530  78.747  39.083  0.00  0.00    +0.021 A 
ATOM     21  C   UNL     1      43.797  79.903  38.415  0.00  0.00    +0.100 A 
ATOM     22  N   UNL     1      44.842  80.660  38.778  0.00  0.00    -0.227 NA
ENDBRANCH  16  17
ENDBRANCH   3  14
TORSDOF 2
