REMARK  Name = Tenofovir
REMARK  5 active torsions:
REMARK  status: ('A' for Active; 'I' for Inactive)
REMARK    1  A    between atoms: C_2  and  C_3
REMARK    2  A    between atoms: C_2  and  O_14
REMARK    3  A    between atoms: C_3  and  N_4
REMARK    4  A    between atoms: O_14  and  C_15
REMARK    5  A    between atoms: C_15  and  P_16
REMARK                            x       y       z     vdW  Elec       q    Type
REMARK                         _______ _______ _______ _____ _____    ______ ____
ROOT
ATOM      1  N   UNL     1      46.699  81.481  40.573  0.00  0.00    -0.292 N 
ATOM      2  C   UNL     1      46.523  82.289  39.512  0.00  0.00    +0.180 A 
ATOM      3  N   UNL     1      45.499  81.850  38.765  0.00  0.00    -0.219 NA
ATOM      4  C   UNL     1      45.015  80.751  39.352  0.00  0.00    +0.152 A 
ATOM      5  C   UNL     1      43.956  79.917  38.981  0.00  0.00    +0.192 A 
ATOM      6  N   UNL     1      43.702  78.870  39.785  0.00  0.00    -0.204 NA
ATOM      7  C   UNL     1      44.434  78.635  40.899  0.00  0.00    +0.202 A 
ATOM      8  N   UNL     1      45.448  79.459  41.228  0.00  0.00    -0.205 NA
ATOM      9  C   UNL     1      45.760  80.523  40.474  0.00  0.00    +0.167 A 
ATOM     10  N   UNL     1      43.211  80.197  37.804  0.00  0.00    -0.105 NA
ENDROOT
BRANCH   1  11
ATOM     11  C   UNL     1      47.713  81.654  41.587  0.00  0.00    +0.138 C 
BRANCH  11  13
ATOM     12  C   UNL     1      47.032  83.843  42.587  0.00  0.00    +0.034 C 
ATOM     13  C   UNL     1      48.090  83.111  41.801  0.00  0.00    +0.139 C 
BRANCH  13  14
ATOM     14  O   UNL     1      49.340  83.237  42.370  0.00  0.00    -0.343 OA
BRANCH  14  15
ATOM     15  C   UNL     1      50.350  83.079  41.459  0.00  0.00    +0.262 C 
BRANCH  15  16
ATOM     16  P   UNL     1      52.013  83.207  42.114  0.00  0.00    +0.425 P 
ATOM     17  O   UNL     1      52.300  82.211  43.210  0.00  0.00    -0.251 OA
ATOM     18  O   UNL     1      53.187  83.139  40.895  0.00  0.00    -0.136 OA
ATOM     19  O   UNL     1      52.138  84.749  42.854  0.00  0.00    -0.136 OA
ENDBRANCH  15  16
ENDBRANCH  14  15
ENDBRANCH  13  14
ENDBRANCH  11  13
ENDBRANCH   1  11
TORSDOF 5
