REMARK  Name = Tenofovir_disoproxil_fumarate
REMARK  19 active torsions:
REMARK  status: ('A' for Active; 'I' for Inactive)
REMARK    1  A    between atoms: C_2  and  O_4
REMARK    2  A    between atoms: O_4  and  C_5
REMARK    3  A    between atoms: C_5  and  O_7
REMARK    4  A    between atoms: O_7  and  C_8
REMARK    5  A    between atoms: C_8  and  O_9
REMARK    6  A    between atoms: O_9  and  P_10
REMARK    7  A    between atoms: P_10  and  C_12
REMARK    8  A    between atoms: P_10  and  O_27
REMARK    9  A    between atoms: C_12  and  O_13
REMARK   10  A    between atoms: O_13  and  C_14
REMARK   11  A    between atoms: C_14  and  C_16
REMARK   12  A    between atoms: C_16  and  N_17
REMARK   13  A    between atoms: O_27  and  C_28
REMARK   14  A    between atoms: C_28  and  O_29
REMARK   15  A    between atoms: O_29  and  C_30
REMARK   16  A    between atoms: C_30  and  O_32
REMARK   17  A    between atoms: O_32  and  C_33
REMARK   18  A    between atoms: C_36  and  C_41
REMARK   19  A    between atoms: C_37  and  C_38
REMARK                            x       y       z     vdW  Elec       q    Type
REMARK                         _______ _______ _______ _____ _____    ______ ____
ROOT
ATOM      1  P   UNL     1      43.925  74.724  43.665  0.00  0.00    +0.378 P 
ATOM      2  O   UNL     1      43.032  74.634  44.903  0.00  0.00    -0.255 OA
ENDROOT
BRANCH   1   3
ATOM      3  O   UNL     1      43.526  73.443  42.635  0.00  0.00    -0.250 OA
BRANCH   3   4
ATOM      4  C   UNL     1      42.165  73.284  42.673  0.00  0.00    +0.372 C 
BRANCH   4   5
ATOM      5  O   UNL     1      41.706  72.373  41.663  0.00  0.00    -0.387 OA
BRANCH   5   6
ATOM      6  C   UNL     1      40.379  72.067  41.512  0.00  0.00    +0.514 C 
ATOM      7  O   UNL     1      39.594  72.394  42.448  0.00  0.00    -0.203 OA
BRANCH   6   8
ATOM      8  O   UNL     1      39.828  71.430  40.425  0.00  0.00    -0.422 OA
BRANCH   8  10
ATOM      9  C   UNL     1      39.253  71.461  38.113  0.00  0.00    +0.047 C 
ATOM     10  C   UNL     1      40.371  71.531  39.109  0.00  0.00    +0.173 C 
ATOM     11  C   UNL     1      41.435  70.508  38.865  0.00  0.00    +0.047 C 
ENDBRANCH   8  10
ENDBRANCH   6   8
ENDBRANCH   5   6
ENDBRANCH   4   5
ENDBRANCH   3   4
ENDBRANCH   1   3
BRANCH   1  12
ATOM     12  C   UNL     1      43.590  76.323  42.879  0.00  0.00    +0.258 C 
BRANCH  12  13
ATOM     13  O   UNL     1      44.589  76.603  41.955  0.00  0.00    -0.343 OA
BRANCH  13  14
ATOM     14  C   UNL     1      44.399  77.815  41.312  0.00  0.00    +0.139 C 
ATOM     15  C   UNL     1      44.299  77.697  39.830  0.00  0.00    +0.034 C 
BRANCH  14  16
ATOM     16  C   UNL     1      45.581  78.693  41.651  0.00  0.00    +0.138 C 
BRANCH  16  17
ATOM     17  N   UNL     1      45.502  79.996  41.036  0.00  0.00    -0.292 N 
ATOM     18  C   UNL     1      44.914  81.117  41.519  0.00  0.00    +0.180 A 
ATOM     19  N   UNL     1      45.072  82.100  40.623  0.00  0.00    -0.219 NA
ATOM     20  C   UNL     1      45.761  81.629  39.554  0.00  0.00    +0.152 A 
ATOM     21  C   UNL     1      46.183  82.215  38.384  0.00  0.00    +0.192 A 
ATOM     22  N   UNL     1      46.859  81.486  37.502  0.00  0.00    -0.204 NA
ATOM     23  C   UNL     1      47.131  80.192  37.741  0.00  0.00    +0.202 A 
ATOM     24  N   UNL     1      46.719  79.624  38.883  0.00  0.00    -0.205 NA
ATOM     25  C   UNL     1      46.022  80.300  39.837  0.00  0.00    +0.167 A 
ATOM     26  N   UNL     1      45.910  83.576  38.105  0.00  0.00    -0.105 NA
ENDBRANCH  16  17
ENDBRANCH  14  16
ENDBRANCH  13  14
ENDBRANCH  12  13
ENDBRANCH   1  12
BRANCH   1  27
ATOM     27  O   UNL     1      45.537  74.609  44.178  0.00  0.00    -0.250 OA
BRANCH  27  28
ATOM     28  C   UNL     1      45.600  75.122  45.489  0.00  0.00    +0.372 C 
BRANCH  28  29
ATOM     29  O   UNL     1      44.955  74.261  46.401  0.00  0.00    -0.387 OA
BRANCH  29  30
ATOM     30  C   UNL     1      44.903  74.527  47.771  0.00  0.00    +0.514 C 
ATOM     31  O   UNL     1      45.547  75.523  48.179  0.00  0.00    -0.203 OA
BRANCH  30  32
ATOM     32  O   UNL     1      44.203  73.774  48.675  0.00  0.00    -0.422 OA
BRANCH  32  33
ATOM     33  C   UNL     1      44.170  74.079  50.061  0.00  0.00    +0.173 C 
ATOM     34  C   UNL     1      43.649  75.474  50.311  0.00  0.00    +0.047 C 
ATOM     35  C   UNL     1      45.558  73.979  50.636  0.00  0.00    +0.047 C 
ENDBRANCH  32  33
ENDBRANCH  30  32
ENDBRANCH  29  30
ENDBRANCH  28  29
ENDBRANCH  27  28
ENDBRANCH   1  27
TORSDOF 17
REMARK  Name = Tenofovir_disoproxil_fumarate
REMARK  19 active torsions:
REMARK  status: ('A' for Active; 'I' for Inactive)
REMARK    1  A    between atoms: C_2  and  O_4
REMARK    2  A    between atoms: O_4  and  C_5
REMARK    3  A    between atoms: C_5  and  O_7
REMARK    4  A    between atoms: O_7  and  C_8
REMARK    5  A    between atoms: C_8  and  O_9
REMARK    6  A    between atoms: O_9  and  P_10
REMARK    7  A    between atoms: P_10  and  C_12
REMARK    8  A    between atoms: P_10  and  O_27
REMARK    9  A    between atoms: C_12  and  O_13
REMARK   10  A    between atoms: O_13  and  C_14
REMARK   11  A    between atoms: C_14  and  C_16
REMARK   12  A    between atoms: C_16  and  N_17
REMARK   13  A    between atoms: O_27  and  C_28
REMARK   14  A    between atoms: C_28  and  O_29
REMARK   15  A    between atoms: O_29  and  C_30
REMARK   16  A    between atoms: C_30  and  O_32
REMARK   17  A    between atoms: O_32  and  C_33
REMARK   18  A    between atoms: C_36  and  C_41
REMARK   19  A    between atoms: C_37  and  C_38
REMARK                            x       y       z     vdW  Elec       q    Type
REMARK                         _______ _______ _______ _____ _____    ______ ____
ROOT
ATOM      1  C   UNL     1      43.938  75.996  42.822  0.00  0.00    +0.093 C 
ATOM      2  C   UNL     1      44.715  75.043  42.357  0.00  0.00    +0.093 C 
ENDROOT
BRANCH   2   3
ATOM      3  C   UNL     1      44.943  73.858  43.163  0.00  0.00    +0.388 C 
ATOM      4  O   UNL     1      44.079  72.956  43.194  0.00  0.00    -0.241 OA
ATOM      5  O   UNL     1      46.089  73.662  43.919  0.00  0.00    -0.241 OA
ENDBRANCH   2   3
BRANCH   1   6
ATOM      6  C   UNL     1      43.053  76.780  41.965  0.00  0.00    +0.388 C 
ATOM      7  O   UNL     1      42.724  77.951  42.268  0.00  0.00    -0.241 OA
ATOM      8  O   UNL     1      42.584  76.203  40.812  0.00  0.00    -0.241 OA
ENDBRANCH   1   6
TORSDOF 2
