REMARK  Name = Tepotinib
REMARK  8 active torsions:
REMARK  status: ('A' for Active; 'I' for Inactive)
REMARK    1  A    between atoms: C_5  and  C_8
REMARK    2  A    between atoms: C_8  and  O_9
REMARK    3  A    between atoms: O_9  and  C_10
REMARK    4  A    between atoms: C_13  and  C_16
REMARK    5  A    between atoms: C_20  and  C_22
REMARK    6  A    between atoms: C_22  and  N_23
REMARK    7  A    between atoms: C_28  and  C_30
REMARK    8  A    between atoms: C_34  and  C_36
REMARK                            x       y       z     vdW  Elec       q    Type
REMARK                         _______ _______ _______ _____ _____    ______ ____
ROOT
ATOM      1  C   UNL     1      43.404  77.833  39.935  0.00  0.00    +0.036 A 
ATOM      2  C   UNL     1      43.407  77.461  41.271  0.00  0.00    +0.003 A 
ATOM      3  C   UNL     1      44.487  77.781  42.081  0.00  0.00    -0.000 A 
ATOM      4  C   UNL     1      45.568  78.466  41.594  0.00  0.00    -0.002 A 
ATOM      5  C   UNL     1      45.584  78.843  40.276  0.00  0.00    +0.002 A 
ATOM      6  C   UNL     1      44.511  78.522  39.482  0.00  0.00    +0.001 A 
ENDROOT
BRANCH   1  10
ATOM      7  C   UNL     1      40.168  76.668  37.471  0.00  0.00    +0.177 A 
ATOM      8  C   UNL     1      40.413  76.058  38.672  0.00  0.00    +0.139 A 
ATOM      9  N   UNL     1      41.466  76.470  39.448  0.00  0.00    -0.222 NA
ATOM     10  C   UNL     1      42.283  77.458  39.086  0.00  0.00    +0.162 A 
ATOM     11  N   UNL     1      42.045  78.060  37.909  0.00  0.00    -0.222 NA
ATOM     12  C   UNL     1      41.035  77.700  37.113  0.00  0.00    +0.139 A 
BRANCH   7  13
ATOM     13  O   UNL     1      39.141  76.298  36.654  0.00  0.00    -0.472 OA
BRANCH  13  14
ATOM     14  C   UNL     1      38.823  75.047  36.180  0.00  0.00    +0.206 C 
BRANCH  14  19
ATOM     15  C   UNL     1      37.485  72.272  32.218  0.00  0.00    +0.090 C 
ATOM     16  N   UNL     1      37.990  73.233  33.187  0.00  0.00    -0.272 NA
ATOM     17  C   UNL     1      37.136  74.406  33.084  0.00  0.00    +0.072 C 
ATOM     18  C   UNL     1      37.472  75.428  34.130  0.00  0.00    +0.021 C 
ATOM     19  C   UNL     1      37.479  74.869  35.543  0.00  0.00    +0.047 C 
ATOM     20  C   UNL     1      37.087  73.404  35.444  0.00  0.00    +0.021 C 
ATOM     21  C   UNL     1      37.980  72.655  34.497  0.00  0.00    +0.072 C 
ENDBRANCH  14  19
ENDBRANCH  13  14
ENDBRANCH   7  13
ENDBRANCH   1  10
BRANCH   5  22
ATOM     22  C   UNL     1      46.722  79.559  39.662  0.00  0.00    +0.157 C 
BRANCH  22  23
ATOM     23  N   UNL     1      46.654  80.988  39.885  0.00  0.00    -0.212 N 
ATOM     24  C   UNL     1      45.842  81.773  39.172  0.00  0.00    +0.277 A 
ATOM     25  O   UNL     1      45.080  81.302  38.260  0.00  0.00    -0.266 OA
ATOM     26  C   UNL     1      45.866  83.125  39.468  0.00  0.00    +0.064 A 
ATOM     27  C   UNL     1      46.714  83.602  40.473  0.00  0.00    +0.026 A 
ATOM     28  C   UNL     1      47.528  82.760  41.178  0.00  0.00    +0.101 A 
ATOM     29  N   UNL     1      47.453  81.442  40.833  0.00  0.00    -0.167 NA
BRANCH  28  30
ATOM     30  C   UNL     1      48.441  83.161  42.253  0.00  0.00    +0.020 A 
ATOM     31  C   UNL     1      48.127  84.150  43.125  0.00  0.00    +0.002 A 
ATOM     32  C   UNL     1      49.033  84.482  44.145  0.00  0.00    +0.001 A 
ATOM     33  C   UNL     1      50.242  83.840  44.301  0.00  0.00    +0.010 A 
ATOM     34  C   UNL     1      50.565  82.831  43.414  0.00  0.00    +0.068 A 
ATOM     35  C   UNL     1      49.647  82.516  42.405  0.00  0.00    +0.012 A 
BRANCH  34  36
ATOM     36  C   UNL     1      51.783  82.091  43.517  0.00  0.00    +0.100 C 
ATOM     37  N   UNL     1      52.813  81.490  43.606  0.00  0.00    -0.191 NA
ENDBRANCH  34  36
ENDBRANCH  28  30
ENDBRANCH  22  23
ENDBRANCH   5  22
TORSDOF 8
