REMARK  Name = Teprenone
REMARK  12 active torsions:
REMARK  status: ('A' for Active; 'I' for Inactive)
REMARK    1  A    between atoms: C_3  and  C_4
REMARK    2  A    between atoms: C_4  and  C_5
REMARK    3  A    between atoms: C_5  and  C_6
REMARK    4  A    between atoms: C_7  and  C_8
REMARK    5  A    between atoms: C_8  and  C_9
REMARK    6  A    between atoms: C_9  and  C_10
REMARK    7  A    between atoms: C_11  and  C_12
REMARK    8  A    between atoms: C_12  and  C_13
REMARK    9  A    between atoms: C_13  and  C_14
REMARK   10  A    between atoms: C_15  and  C_16
REMARK   11  A    between atoms: C_16  and  C_17
REMARK   12  A    between atoms: C_17  and  C_18
REMARK                            x       y       z     vdW  Elec       q    Type
REMARK                         _______ _______ _______ _____ _____    ______ ____
ROOT
ATOM      1  C   UNL     1      43.971  78.898  39.337  0.00  0.00    -0.048 C 
ATOM      2  C   UNL     1      43.075  78.385  38.536  0.00  0.00    -0.034 C 
ATOM      3  C   UNL     1      43.914  78.744  40.809  0.00  0.00    +0.026 C 
ENDROOT
BRANCH   1   4
ATOM      4  C   UNL     1      45.106  79.671  38.769  0.00  0.00    +0.026 C 
BRANCH   4   5
ATOM      5  C   UNL     1      44.912  81.116  39.282  0.00  0.00    +0.030 C 
BRANCH   5   7
ATOM      6  C   UNL     1      46.810  81.909  40.613  0.00  0.00    -0.048 C 
ATOM      7  C   UNL     1      45.715  81.218  40.499  0.00  0.00    -0.034 C 
ATOM      8  C   UNL     1      47.316  82.637  39.368  0.00  0.00    +0.026 C 
BRANCH   6   9
ATOM      9  C   UNL     1      47.578  82.027  41.864  0.00  0.00    +0.026 C 
BRANCH   9  10
ATOM     10  C   UNL     1      49.057  81.858  41.447  0.00  0.00    +0.030 C 
BRANCH  10  13
ATOM     11  C   UNL     1      50.680  83.139  43.619  0.00  0.00    +0.026 C 
ATOM     12  C   UNL     1      50.678  83.555  42.183  0.00  0.00    -0.048 C 
ATOM     13  C   UNL     1      49.717  83.195  41.347  0.00  0.00    -0.034 C 
ATOM     14  C   UNL     1      51.783  84.392  41.689  0.00  0.00    +0.026 C 
ENDBRANCH  10  13
ENDBRANCH   9  10
ENDBRANCH   6   9
ENDBRANCH   5   7
ENDBRANCH   4   5
ENDBRANCH   1   4
BRANCH   2  15
ATOM     15  C   UNL     1      41.920  77.554  38.983  0.00  0.00    +0.030 C 
BRANCH  15  16
ATOM     16  C   UNL     1      41.614  76.510  37.954  0.00  0.00    +0.026 C 
BRANCH  16  17
ATOM     17  C   UNL     1      40.279  76.614  37.342  0.00  0.00    -0.048 C 
ATOM     18  C   UNL     1      39.902  75.772  36.388  0.00  0.00    -0.034 C 
ATOM     19  C   UNL     1      39.325  77.667  37.788  0.00  0.00    +0.026 C 
BRANCH  18  20
ATOM     20  C   UNL     1      38.540  75.788  35.795  0.00  0.00    +0.033 C 
BRANCH  20  21
ATOM     21  C   UNL     1      38.395  74.733  34.716  0.00  0.00    +0.069 C 
BRANCH  21  22
ATOM     22  C   UNL     1      38.075  73.421  35.344  0.00  0.00    +0.151 C 
ATOM     23  O   UNL     1      38.154  73.243  36.554  0.00  0.00    -0.296 OA
ATOM     24  C   UNL     1      37.639  72.262  34.498  0.00  0.00    +0.072 C 
ENDBRANCH  21  22
ENDBRANCH  20  21
ENDBRANCH  18  20
ENDBRANCH  16  17
ENDBRANCH  15  16
ENDBRANCH   2  15
TORSDOF 12
