REMARK  Name = Terbutaline
REMARK  4 active torsions:
REMARK  status: ('A' for Active; 'I' for Inactive)
REMARK    1  A    between atoms: C_2  and  N_5
REMARK    2  A    between atoms: N_5  and  C_6
REMARK    3  A    between atoms: C_6  and  C_7
REMARK    4  A    between atoms: C_7  and  C_8
REMARK                            x       y       z     vdW  Elec       q    Type
REMARK                         _______ _______ _______ _____ _____    ______ ____
ROOT
ATOM      1  C   UNL     1      48.112  80.712  41.818  0.00  0.00    +0.192 C 
ATOM      2  O   UNL     1      47.710  80.033  42.932  0.00  0.00    -0.217 OA
ENDROOT
BRANCH   1   3
ATOM      3  C   UNL     1      47.013  80.576  40.798  0.00  0.00    +0.015 A 
ATOM      4  C   UNL     1      46.195  79.462  40.763  0.00  0.00    +0.040 A 
ATOM      5  C   UNL     1      45.189  79.340  39.830  0.00  0.00    +0.199 A 
ATOM      6  C   UNL     1      44.949  80.320  38.888  0.00  0.00    +0.084 A 
ATOM      7  C   UNL     1      45.759  81.432  38.916  0.00  0.00    +0.199 A 
ATOM      8  C   UNL     1      46.765  81.557  39.847  0.00  0.00    +0.040 A 
ATOM      9  O   UNL     1      45.538  82.428  37.982  0.00  0.00    -0.286 OA
ATOM     10  O   UNL     1      44.386  78.210  39.821  0.00  0.00    -0.286 OA
ENDBRANCH   1   3
BRANCH   1  11
ATOM     11  C   UNL     1      48.456  82.161  42.011  0.00  0.00    +0.126 C 
BRANCH  11  12
ATOM     12  N   UNL     1      49.476  82.511  42.868  0.00  0.00    -0.218 NA
BRANCH  12  14
ATOM     13  C   UNL     1      50.684  84.269  41.915  0.00  0.00    +0.017 C 
ATOM     14  C   UNL     1      49.917  83.782  43.182  0.00  0.00    +0.060 C 
ATOM     15  C   UNL     1      50.993  83.754  44.245  0.00  0.00    +0.017 C 
ATOM     16  C   UNL     1      48.904  84.834  43.458  0.00  0.00    +0.017 C 
ENDBRANCH  12  14
ENDBRANCH  11  12
ENDBRANCH   1  11
TORSDOF 4
