REMARK  Name = Terconazole
REMARK  8 active torsions:
REMARK  status: ('A' for Active; 'I' for Inactive)
REMARK    1  A    between atoms: C_2  and  N_4
REMARK    2  A    between atoms: N_7  and  C_10
REMARK    3  A    between atoms: C_13  and  O_16
REMARK    4  A    between atoms: O_16  and  C_17
REMARK    5  A    between atoms: C_17  and  C_18
REMARK    6  A    between atoms: C_21  and  C_23
REMARK    7  A    between atoms: C_21  and  C_29
REMARK    8  A    between atoms: C_23  and  N_24
REMARK                            x       y       z     vdW  Elec       q    Type
REMARK                         _______ _______ _______ _____ _____    ______ ____
ROOT
ATOM      1  C   UNL     1      46.593  79.382  41.312  0.00  0.00    +0.191 C 
ATOM      2  C   UNL     1      47.215  79.341  42.669  0.00  0.00    +0.178 C 
ATOM      3  O   UNL     1      48.377  80.087  42.492  0.00  0.00    -0.327 OA
ATOM      4  C   UNL     1      48.145  81.003  41.489  0.00  0.00    +0.231 C 
ATOM      5  O   UNL     1      46.910  80.694  40.919  0.00  0.00    -0.325 OA
ENDROOT
BRANCH   4   6
ATOM      6  C   UNL     1      48.106  82.334  42.077  0.00  0.00    +0.041 A 
ATOM      7  C   UNL     1      48.699  82.620  43.288  0.00  0.00    +0.059 A 
ATOM      8  C   UNL     1      48.643  83.907  43.816  0.00  0.00    +0.023 A 
ATOM      9  C   UNL     1      47.993  84.911  43.131  0.00  0.00    +0.058 A 
ATOM     10  C   UNL     1      47.400  84.642  41.928  0.00  0.00    +0.011 A 
ATOM     11  C   UNL     1      47.469  83.361  41.428  0.00  0.00    +0.002 A 
ATOM     12 CL   UNL     1      47.913  86.555  43.788  0.00  0.00    -0.082 Cl
ATOM     13 CL   UNL     1      49.539  81.407  44.225  0.00  0.00    -0.082 Cl
ENDBRANCH   4   6
BRANCH   1  14
ATOM     14  C   UNL     1      45.085  79.270  41.424  0.00  0.00    +0.237 C 
BRANCH  14  15
ATOM     15  O   UNL     1      44.381  78.942  40.372  0.00  0.00    -0.473 OA
BRANCH  15  19
ATOM     16  C   UNL     1      41.679  76.640  38.248  0.00  0.00    +0.048 A 
ATOM     17  C   UNL     1      42.099  76.306  39.509  0.00  0.00    +0.018 A 
ATOM     18  C   UNL     1      42.991  77.051  40.235  0.00  0.00    +0.038 A 
ATOM     19  C   UNL     1      43.526  78.209  39.710  0.00  0.00    +0.139 A 
ATOM     20  C   UNL     1      43.101  78.567  38.409  0.00  0.00    +0.038 A 
ATOM     21  C   UNL     1      42.208  77.796  37.718  0.00  0.00    +0.018 A 
BRANCH  16  25
ATOM     22  N   UNL     1      38.490  74.649  36.441  0.00  0.00    -0.271 NA
ATOM     23  C   UNL     1      39.247  75.502  35.602  0.00  0.00    +0.094 C 
ATOM     24  C   UNL     1      40.397  76.210  36.216  0.00  0.00    +0.108 C 
ATOM     25  N   UNL     1      40.756  75.836  37.539  0.00  0.00    -0.305 N 
ATOM     26  C   UNL     1      40.221  74.675  38.176  0.00  0.00    +0.108 C 
ATOM     27  C   UNL     1      39.266  73.871  37.364  0.00  0.00    +0.094 C 
BRANCH  22  29
ATOM     28  C   UNL     1      36.635  74.332  38.040  0.00  0.00    +0.017 C 
ATOM     29  C   UNL     1      37.247  75.126  36.913  0.00  0.00    +0.058 C 
ATOM     30  C   UNL     1      36.285  75.224  35.732  0.00  0.00    +0.017 C 
ENDBRANCH  22  29
ENDBRANCH  16  25
ENDBRANCH  15  19
ENDBRANCH  14  15
ENDBRANCH   1  14
BRANCH   4  31
ATOM     31  C   UNL     1      49.170  80.806  40.408  0.00  0.00    +0.190 C 
BRANCH  31  32
ATOM     32  N   UNL     1      50.503  81.141  40.824  0.00  0.00    -0.225 N 
ATOM     33  C   UNL     1      51.295  82.159  40.383  0.00  0.00    +0.197 A 
ATOM     34  N   UNL     1      52.439  82.046  41.073  0.00  0.00    -0.201 NA
ATOM     35  C   UNL     1      52.374  80.999  41.915  0.00  0.00    +0.221 A 
ATOM     36  N   UNL     1      51.166  80.457  41.741  0.00  0.00    -0.145 NA
ENDBRANCH  31  32
ENDBRANCH   4  31
TORSDOF 8
