REMARK  Name = Teriflunomide
REMARK  4 active torsions:
REMARK  status: ('A' for Active; 'I' for Inactive)
REMARK    1  A    between atoms: C_3  and  C_4
REMARK    2  A    between atoms: C_3  and  C_6
REMARK    3  A    between atoms: N_8  and  C_9
REMARK    4  A    between atoms: C_12  and  C_15
REMARK                            x       y       z     vdW  Elec       q    Type
REMARK                         _______ _______ _______ _____ _____    ______ ____
ROOT
ATOM      1  C   UNL     1      47.815  81.479  42.057  0.00  0.00    +0.074 A 
ATOM      2  C   UNL     1      49.128  81.086  42.211  0.00  0.00    +0.017 A 
ATOM      3  C   UNL     1      50.062  82.001  42.654  0.00  0.00    +0.005 A 
ATOM      4  C   UNL     1      49.733  83.306  42.953  0.00  0.00    +0.072 A 
ATOM      5  C   UNL     1      48.413  83.672  42.791  0.00  0.00    +0.005 A 
ATOM      6  C   UNL     1      47.464  82.770  42.348  0.00  0.00    +0.017 A 
ENDROOT
BRANCH   4   7
ATOM      7  C   UNL     1      50.763  84.282  43.433  0.00  0.00    +0.419 C 
ATOM      8  F   UNL     1      50.176  85.495  43.690  0.00  0.00    -0.166 F 
ATOM      9  F   UNL     1      51.719  84.449  42.451  0.00  0.00    -0.166 F 
ATOM     10  F   UNL     1      51.291  83.804  44.598  0.00  0.00    -0.166 F 
ENDBRANCH   4   7
BRANCH   1  13
ATOM     11  C   UNL     1      46.117  80.907  40.425  0.00  0.00    +0.282 C 
ATOM     12  O   UNL     1      46.273  82.089  39.954  0.00  0.00    -0.267 OA
ATOM     13  N   UNL     1      46.817  80.535  41.593  0.00  0.00    -0.175 NA
BRANCH  11  16
ATOM     14  C   UNL     1      43.339  79.365  38.369  0.00  0.00    +0.078 C 
ATOM     15  C   UNL     1      44.395  80.352  38.775  0.00  0.00    +0.188 C 
ATOM     16  C   UNL     1      45.221  80.011  39.724  0.00  0.00    +0.158 C 
ATOM     17  O   UNL     1      44.403  81.538  38.109  0.00  0.00    -0.290 OA
BRANCH  16  18
ATOM     18  C   UNL     1      45.278  78.599  40.150  0.00  0.00    +0.108 C 
ATOM     19  N   UNL     1      45.313  77.494  40.477  0.00  0.00    -0.191 NA
ENDBRANCH  16  18
ENDBRANCH  11  16
ENDBRANCH   1  13
TORSDOF 4
