REMARK  Name = Terpin_hydrate
REMARK  1 active torsions:
REMARK  status: ('A' for Active; 'I' for Inactive)
REMARK    1  A    between atoms: C_5  and  C_8
REMARK                            x       y       z     vdW  Elec       q    Type
REMARK                         _______ _______ _______ _____ _____    ______ ____
ROOT
ATOM      1  C   UNL     1      43.729  79.826  40.050  0.00  0.00    +0.033 C 
ATOM      2  C   UNL     1      45.080  80.162  39.431  0.00  0.00    +0.127 C 
ATOM      3  C   UNL     1      45.301  81.639  39.485  0.00  0.00    +0.030 C 
ATOM      4  C   UNL     1      46.767  82.014  39.464  0.00  0.00    +0.005 C 
ATOM      5  C   UNL     1      47.553  81.348  40.543  0.00  0.00    +0.028 C 
ATOM      6  C   UNL     1      46.666  80.382  41.264  0.00  0.00    +0.005 C 
ATOM      7  C   UNL     1      46.128  79.425  40.214  0.00  0.00    +0.030 C 
ATOM      8  O   UNL     1      45.052  79.781  38.091  0.00  0.00    -0.226 OA
ENDROOT
BRANCH   5   9
ATOM      9  C   UNL     1      48.243  82.326  41.452  0.00  0.00    +0.127 C 
ATOM     10  C   UNL     1      47.306  83.252  42.157  0.00  0.00    +0.033 C 
ATOM     11  C   UNL     1      49.063  81.606  42.500  0.00  0.00    +0.033 C 
ATOM     12  O   UNL     1      49.131  83.100  40.707  0.00  0.00    -0.226 OA
ENDBRANCH   5   9
TORSDOF 1
REMARK  Name = Terpin_hydrate
REMARK  1 active torsions:
REMARK  status: ('A' for Active; 'I' for Inactive)
REMARK    1  A    between atoms: C_5  and  C_8
REMARK                            x       y       z     vdW  Elec       q    Type
REMARK                         _______ _______ _______ _____ _____    ______ ____
ROOT
ATOM      1  O   HOH     1      46.325  81.538  40.653  0.00  0.00    +0.000 OA
ENDROOT
TORSDOF 0
