REMARK  Name = TERTATOLOL
REMARK  6 active torsions:
REMARK  status: ('A' for Active; 'I' for Inactive)
REMARK    1  A    between atoms: C_2  and  N_5
REMARK    2  A    between atoms: N_5  and  C_6
REMARK    3  A    between atoms: C_6  and  C_7
REMARK    4  A    between atoms: C_7  and  C_8
REMARK    5  A    between atoms: C_8  and  O_9
REMARK    6  A    between atoms: O_9  and  C_10
REMARK                            x       y       z     vdW  Elec       q    Type
REMARK                         _______ _______ _______ _____ _____    ______ ____
ROOT
ATOM      1  O   UNL     1      45.425  79.764  39.086  0.00  0.00    -0.472 OA
ENDROOT
BRANCH   1   2
ATOM      2  C   UNL     1      44.304  79.094  39.029  0.00  0.00    +0.144 A 
ATOM      3  C   UNL     1      43.208  79.454  38.239  0.00  0.00    +0.037 A 
ATOM      4  C   UNL     1      42.071  78.676  38.250  0.00  0.00    +0.003 A 
ATOM      5  C   UNL     1      41.962  77.538  39.020  0.00  0.00    -0.004 A 
ATOM      6  C   UNL     1      43.071  77.189  39.810  0.00  0.00    -0.014 A 
ATOM      7  C   UNL     1      44.187  77.944  39.804  0.00  0.00    +0.055 A 
ATOM      8  S   UNL     1      45.547  77.445  40.806  0.00  0.00    -0.111 S 
ATOM      9  C   UNL     1      44.859  76.642  42.272  0.00  0.00    +0.063 C 
ATOM     10  C   UNL     1      43.483  76.130  42.050  0.00  0.00    +0.017 C 
ATOM     11  C   UNL     1      43.022  75.976  40.656  0.00  0.00    +0.028 C 
ENDBRANCH   1   2
BRANCH   1  12
ATOM     12  C   UNL     1      46.525  80.409  39.149  0.00  0.00    +0.240 C 
BRANCH  12  13
ATOM     13  C   UNL     1      46.591  81.911  39.198  0.00  0.00    +0.213 C 
ATOM     14  O   UNL     1      45.319  82.411  38.786  0.00  0.00    -0.218 OA
BRANCH  13  15
ATOM     15  C   UNL     1      46.829  82.463  40.602  0.00  0.00    +0.125 C 
BRANCH  15  16
ATOM     16  N   UNL     1      48.230  82.660  40.839  0.00  0.00    -0.218 NA
BRANCH  16  18
ATOM     17  C   UNL     1      47.847  84.437  42.415  0.00  0.00    +0.017 C 
ATOM     18  C   UNL     1      48.612  83.154  42.106  0.00  0.00    +0.060 C 
ATOM     19  C   UNL     1      48.045  82.135  43.142  0.00  0.00    +0.017 C 
ATOM     20  C   UNL     1      50.063  83.337  42.381  0.00  0.00    +0.017 C 
ENDBRANCH  16  18
ENDBRANCH  15  16
ENDBRANCH  13  15
ENDBRANCH  12  13
ENDBRANCH   1  12
TORSDOF 6
