REMARK  Name = Testosterone_undecanoate
REMARK  11 active torsions:
REMARK  status: ('A' for Active; 'I' for Inactive)
REMARK    1  A    between atoms: C_2  and  C_3
REMARK    2  A    between atoms: C_3  and  C_4
REMARK    3  A    between atoms: C_4  and  C_5
REMARK    4  A    between atoms: C_5  and  C_6
REMARK    5  A    between atoms: C_6  and  C_7
REMARK    6  A    between atoms: C_7  and  C_8
REMARK    7  A    between atoms: C_8  and  C_9
REMARK    8  A    between atoms: C_9  and  C_10
REMARK    9  A    between atoms: C_10  and  C_11
REMARK   10  A    between atoms: C_11  and  O_13
REMARK   11  A    between atoms: O_13  and  C_14
REMARK                            x       y       z     vdW  Elec       q    Type
REMARK                         _______ _______ _______ _____ _____    ______ ____
ROOT
ATOM      1  C   UNL     1      45.371  79.041  39.195  0.00  0.00    +0.169 C 
ATOM      2  C   UNL     1      46.011  77.778  39.731  0.00  0.00    +0.044 C 
ATOM      3  C   UNL     1      44.879  76.800  40.011  0.00  0.00    +0.004 C 
ATOM      4  C   UNL     1      43.684  77.680  39.993  0.00  0.00    +0.003 C 
ATOM      5  C   UNL     1      44.014  78.585  38.820  0.00  0.00    +0.037 C 
ATOM      6  C   UNL     1      42.926  79.616  38.801  0.00  0.00    +0.003 C 
ATOM      7  C   UNL     1      41.702  78.864  38.249  0.00  0.00    +0.000 C 
ATOM      8  C   UNL     1      41.293  77.839  39.236  0.00  0.00    +0.003 C 
ATOM      9  C   UNL     1      42.378  76.969  39.794  0.00  0.00    +0.001 C 
ATOM     10  C   UNL     1      41.926  76.523  41.190  0.00  0.00    +0.004 C 
ATOM     11  C   UNL     1      40.419  76.362  41.232  0.00  0.00    +0.022 C 
ATOM     12  C   UNL     1      40.041  75.909  39.841  0.00  0.00    -0.042 C 
ATOM     13  C   UNL     1      39.675  74.686  39.611  0.00  0.00    +0.029 C 
ATOM     14  C   UNL     1      39.327  74.317  38.256  0.00  0.00    +0.173 C 
ATOM     15  O   UNL     1      38.501  73.422  37.980  0.00  0.00    -0.291 OA
ATOM     16  C   UNL     1      39.993  75.049  37.160  0.00  0.00    +0.069 C 
ATOM     17  C   UNL     1      40.145  76.515  37.406  0.00  0.00    +0.012 C 
ATOM     18  C   UNL     1      40.124  76.978  38.803  0.00  0.00    +0.016 C 
ATOM     19  C   UNL     1      38.864  77.832  39.044  0.00  0.00    +0.004 C 
ATOM     20  C   UNL     1      44.042  77.784  37.533  0.00  0.00    +0.004 C 
ENDROOT
BRANCH   1  21
ATOM     21  O   UNL     1      45.286  79.952  40.283  0.00  0.00    -0.452 OA
BRANCH  21  22
ATOM     22  C   UNL     1      45.972  81.166  40.267  0.00  0.00    +0.317 C 
ATOM     23  O   UNL     1      45.802  81.875  39.261  0.00  0.00    -0.250 OA
BRANCH  22  24
ATOM     24  C   UNL     1      46.836  81.543  41.403  0.00  0.00    +0.110 C 
BRANCH  24  25
ATOM     25  C   UNL     1      47.550  82.826  41.086  0.00  0.00    +0.012 C 
BRANCH  25  26
ATOM     26  C   UNL     1      48.239  83.371  42.291  0.00  0.00    +0.001 C 
BRANCH  26  27
ATOM     27  C   UNL     1      49.068  84.621  41.982  0.00  0.00    +0.000 C 
BRANCH  27  28
ATOM     28  C   UNL     1      49.761  85.088  43.226  0.00  0.00    +0.000 C 
BRANCH  28  29
ATOM     29  C   UNL     1      51.169  84.507  43.377  0.00  0.00    +0.000 C 
BRANCH  29  30
ATOM     30  C   UNL     1      52.091  85.028  42.339  0.00  0.00    +0.000 C 
BRANCH  30  31
ATOM     31  C   UNL     1      53.471  84.496  42.419  0.00  0.00    +0.000 C 
BRANCH  31  33
ATOM     32  C   UNL     1      54.238  84.166  40.009  0.00  0.00    +0.000 C 
ATOM     33  C   UNL     1      53.898  83.583  41.329  0.00  0.00    +0.000 C 
ENDBRANCH  31  33
ENDBRANCH  30  31
ENDBRANCH  29  30
ENDBRANCH  28  29
ENDBRANCH  27  28
ENDBRANCH  26  27
ENDBRANCH  25  26
ENDBRANCH  24  25
ENDBRANCH  22  24
ENDBRANCH  21  22
ENDBRANCH   1  21
TORSDOF 11
