REMARK  Name = Testosterone
REMARK  0 active torsions:
REMARK  status: ('A' for Active; 'I' for Inactive)
REMARK                            x       y       z     vdW  Elec       q    Type
REMARK                         _______ _______ _______ _____ _____    ______ ____
ROOT
ATOM      1  C   UNL     1      51.545  82.298  42.193  0.00  0.00    +0.003 C 
ATOM      2  C   UNL     1      50.273  83.144  42.255  0.00  0.00    +0.028 C 
ATOM      3  C   UNL     1      49.906  83.498  40.867  0.00  0.00    +0.002 C 
ATOM      4  C   UNL     1      49.323  82.231  40.221  0.00  0.00    +0.000 C 
ATOM      5  C   UNL     1      48.000  82.074  40.908  0.00  0.00    +0.003 C 
ATOM      6  C   UNL     1      48.072  81.902  42.386  0.00  0.00    +0.001 C 
ATOM      7  C   UNL     1      49.201  82.527  43.088  0.00  0.00    +0.002 C 
ATOM      8  C   UNL     1      48.864  83.573  44.104  0.00  0.00    +0.003 C 
ATOM      9  C   UNL     1      49.409  84.900  43.586  0.00  0.00    +0.033 C 
ATOM     10  C   UNL     1      50.702  84.439  42.958  0.00  0.00    +0.152 C 
ATOM     11  O   UNL     1      51.677  84.219  43.900  0.00  0.00    -0.223 OA
ATOM     12  C   UNL     1      46.698  82.358  42.908  0.00  0.00    +0.004 C 
ATOM     13  C   UNL     1      45.579  81.660  42.245  0.00  0.00    +0.022 C 
ATOM     14  C   UNL     1      45.812  81.170  40.871  0.00  0.00    -0.042 C 
ATOM     15  C   UNL     1      44.752  80.926  40.124  0.00  0.00    +0.029 C 
ATOM     16  C   UNL     1      44.867  80.441  38.760  0.00  0.00    +0.173 C 
ATOM     17  O   UNL     1      43.867  80.372  37.997  0.00  0.00    -0.291 OA
ATOM     18  C   UNL     1      46.177  80.019  38.251  0.00  0.00    +0.069 C 
ATOM     19  C   UNL     1      47.247  80.897  38.837  0.00  0.00    +0.012 C 
ATOM     20  C   UNL     1      47.168  80.949  40.323  0.00  0.00    +0.016 C 
ATOM     21  C   UNL     1      47.674  79.595  40.837  0.00  0.00    +0.004 C 
ENDROOT
TORSDOF 0
