REMARK  Name = Testolactone
REMARK  0 active torsions:
REMARK  status: ('A' for Active; 'I' for Inactive)
REMARK                            x       y       z     vdW  Elec       q    Type
REMARK                         _______ _______ _______ _____ _____    ______ ____
ROOT
ATOM      1  C   UNL     1      51.058  82.277  41.815  0.00  0.00    +0.044 C 
ATOM      2  C   UNL     1      49.863  83.207  42.050  0.00  0.00    +0.136 C 
ATOM      3  C   UNL     1      49.298  83.491  40.667  0.00  0.00    +0.040 C 
ATOM      4  C   UNL     1      48.732  82.266  40.005  0.00  0.00    +0.004 C 
ATOM      5  C   UNL     1      48.169  81.313  41.072  0.00  0.00    +0.007 C 
ATOM      6  C   UNL     1      47.665  82.183  42.157  0.00  0.00    +0.004 C 
ATOM      7  C   UNL     1      48.876  82.602  42.979  0.00  0.00    +0.037 C 
ATOM      8  C   UNL     1      48.503  83.393  44.178  0.00  0.00    +0.015 C 
ATOM      9  C   UNL     1      49.502  84.348  44.695  0.00  0.00    +0.110 C 
ATOM     10  C   UNL     1      50.636  84.650  43.803  0.00  0.00    +0.317 C 
ATOM     11  O   UNL     1      51.706  85.071  44.295  0.00  0.00    -0.250 OA
ATOM     12  O   UNL     1      50.413  84.437  42.470  0.00  0.00    -0.456 OA
ATOM     13  C   UNL     1      46.635  81.597  43.053  0.00  0.00    +0.004 C 
ATOM     14  C   UNL     1      45.535  80.860  42.341  0.00  0.00    +0.022 C 
ATOM     15  C   UNL     1      45.784  80.687  40.889  0.00  0.00    -0.038 C 
ATOM     16  C   UNL     1      44.791  80.818  40.055  0.00  0.00    +0.034 C 
ATOM     17  C   UNL     1      44.959  80.661  38.604  0.00  0.00    +0.195 C 
ATOM     18  O   UNL     1      44.023  80.781  37.777  0.00  0.00    -0.287 OA
ATOM     19  C   UNL     1      46.313  80.350  38.180  0.00  0.00    +0.038 C 
ATOM     20  C   UNL     1      47.292  80.223  39.036  0.00  0.00    -0.020 C 
ATOM     21  C   UNL     1      47.143  80.376  40.476  0.00  0.00    +0.034 C 
ATOM     22  C   UNL     1      47.427  78.963  41.057  0.00  0.00    +0.008 C 
ENDROOT
TORSDOF 0
