REMARK  Name = Tetracycline
REMARK  2 active torsions:
REMARK  status: ('A' for Active; 'I' for Inactive)
REMARK    1  A    between atoms: C_6  and  N_29
REMARK    2  A    between atoms: C_9  and  C_26
REMARK                            x       y       z     vdW  Elec       q    Type
REMARK                         _______ _______ _______ _____ _____    ______ ____
ROOT
ATOM      1  C   UNL     1      46.319  77.166  40.917  0.00  0.00    +0.038 C 
ATOM      2  C   UNL     1      45.490  78.453  41.039  0.00  0.00    +0.149 C 
ATOM      3  C   UNL     1      46.335  79.627  40.771  0.00  0.00    +0.060 C 
ATOM      4  C   UNL     1      46.566  80.529  41.999  0.00  0.00    +0.012 C 
ATOM      5  C   UNL     1      47.757  81.349  41.666  0.00  0.00    +0.065 C 
ATOM      6  C   UNL     1      48.436  82.047  42.796  0.00  0.00    +0.124 C 
ATOM      7  C   UNL     1      49.805  82.407  42.241  0.00  0.00    +0.195 C 
ATOM      8  O   UNL     1      50.784  82.509  43.007  0.00  0.00    -0.290 OA
ATOM      9  C   UNL     1      49.951  82.627  40.812  0.00  0.00    +0.130 C 
ATOM     10  C   UNL     1      48.935  82.582  39.961  0.00  0.00    +0.215 C 
ATOM     11  C   UNL     1      47.581  82.292  40.495  0.00  0.00    +0.237 C 
ATOM     12  C   UNL     1      46.672  81.726  39.469  0.00  0.00    +0.207 C 
ATOM     13  O   UNL     1      46.600  82.305  38.357  0.00  0.00    -0.289 OA
ATOM     14  C   UNL     1      45.866  80.528  39.711  0.00  0.00    +0.057 C 
ATOM     15  C   UNL     1      44.775  80.320  38.993  0.00  0.00    +0.197 C 
ATOM     16  C   UNL     1      43.945  79.146  39.222  0.00  0.00    +0.076 A 
ATOM     17  C   UNL     1      44.310  78.267  40.190  0.00  0.00    +0.012 A 
ATOM     18  C   UNL     1      43.555  77.115  40.444  0.00  0.00    -0.002 A 
ATOM     19  C   UNL     1      42.421  76.855  39.710  0.00  0.00    +0.003 A 
ATOM     20  C   UNL     1      42.051  77.756  38.722  0.00  0.00    +0.042 A 
ATOM     21  C   UNL     1      42.806  78.889  38.483  0.00  0.00    +0.198 A 
ATOM     22  O   UNL     1      42.456  79.797  37.505  0.00  0.00    -0.286 OA
ATOM     23  O   UNL     1      44.375  81.213  37.991  0.00  0.00    -0.287 OA
ATOM     24  O   UNL     1      47.036  83.513  40.886  0.00  0.00    -0.210 OA
ATOM     25  O   UNL     1      49.168  82.806  38.608  0.00  0.00    -0.288 OA
ATOM     26  O   UNL     1      45.102  78.510  42.399  0.00  0.00    -0.221 OA
ENDROOT
BRANCH   9  27
ATOM     27  C   UNL     1      51.292  82.915  40.285  0.00  0.00    +0.290 C 
ATOM     28  O   UNL     1      52.328  82.590  40.920  0.00  0.00    -0.266 OA
ATOM     29  N   UNL     1      51.473  83.571  39.036  0.00  0.00    -0.084 NA
ENDBRANCH   9  27
BRANCH   6  30
ATOM     30  N   UNL     1      47.787  83.199  43.318  0.00  0.00    -0.265 NA
ATOM     31  C   UNL     1      47.017  82.862  44.485  0.00  0.00    +0.090 C 
ATOM     32  C   UNL     1      48.656  84.291  43.612  0.00  0.00    +0.090 C 
ENDBRANCH   6  30
TORSDOF 2
