REMARK  Name = Tetrabenazine
REMARK  4 active torsions:
REMARK  status: ('A' for Active; 'I' for Inactive)
REMARK    1  A    between atoms: C_2  and  C_4
REMARK    2  A    between atoms: C_4  and  C_5
REMARK    3  A    between atoms: C_12  and  O_22
REMARK    4  A    between atoms: C_13  and  O_20
REMARK                            x       y       z     vdW  Elec       q    Type
REMARK                         _______ _______ _______ _____ _____    ______ ____
ROOT
ATOM      1  C   UNL     1      48.563  82.341  41.419  0.00  0.00    +0.074 C 
ATOM      2  C   UNL     1      47.160  82.761  41.772  0.00  0.00    +0.080 C 
ATOM      3  N   UNL     1      46.155  82.025  41.076  0.00  0.00    -0.269 NA
ATOM      4  C   UNL     1      46.221  82.193  39.681  0.00  0.00    +0.077 C 
ATOM      5  C   UNL     1      46.152  80.957  38.855  0.00  0.00    +0.044 C 
ATOM      6  C   UNL     1      45.226  79.936  39.407  0.00  0.00    -0.020 A 
ATOM      7  C   UNL     1      44.426  79.153  38.597  0.00  0.00    +0.036 A 
ATOM      8  C   UNL     1      43.595  78.228  39.191  0.00  0.00    +0.172 A 
ATOM      9  C   UNL     1      43.532  78.056  40.558  0.00  0.00    +0.172 A 
ATOM     10  C   UNL     1      44.357  78.868  41.333  0.00  0.00    +0.037 A 
ATOM     11  C   UNL     1      45.203  79.806  40.779  0.00  0.00    -0.008 A 
ATOM     12  C   UNL     1      46.094  80.688  41.572  0.00  0.00    +0.087 C 
ATOM     13  C   UNL     1      47.436  80.046  41.802  0.00  0.00    +0.085 C 
ATOM     14  C   UNL     1      48.578  80.861  41.349  0.00  0.00    +0.153 C 
ATOM     15  O   UNL     1      49.558  80.301  40.907  0.00  0.00    -0.296 OA
ENDROOT
BRANCH   9  16
ATOM     16  O   UNL     1      42.687  77.116  41.142  0.00  0.00    -0.468 OA
ATOM     17  C   UNL     1      43.192  76.310  42.171  0.00  0.00    +0.253 C 
ENDBRANCH   9  16
BRANCH   8  18
ATOM     18  O   UNL     1      42.767  77.413  38.406  0.00  0.00    -0.468 OA
ATOM     19  C   UNL     1      41.677  77.951  37.677  0.00  0.00    +0.253 C 
ENDBRANCH   8  18
BRANCH   1  20
ATOM     20  C   UNL     1      49.548  82.795  42.468  0.00  0.00    +0.009 C 
BRANCH  20  22
ATOM     21  C   UNL     1      50.575  84.751  43.642  0.00  0.00    +0.000 C 
ATOM     22  C   UNL     1      49.511  84.291  42.672  0.00  0.00    +0.000 C 
ATOM     23  C   UNL     1      48.165  84.638  43.275  0.00  0.00    +0.000 C 
ENDBRANCH  20  22
ENDBRANCH   1  20
TORSDOF 4
