REMARK  Name = Tetracaine
REMARK  9 active torsions:
REMARK  status: ('A' for Active; 'I' for Inactive)
REMARK    1  A    between atoms: C_2  and  C_3
REMARK    2  A    between atoms: C_3  and  C_4
REMARK    3  A    between atoms: C_4  and  N_5
REMARK    4  A    between atoms: N_5  and  C_6
REMARK    5  A    between atoms: C_9  and  C_12
REMARK    6  A    between atoms: C_12  and  O_14
REMARK    7  A    between atoms: O_14  and  C_15
REMARK    8  A    between atoms: C_15  and  C_16
REMARK    9  A    between atoms: C_16  and  N_17
REMARK                            x       y       z     vdW  Elec       q    Type
REMARK                         _______ _______ _______ _____ _____    ______ ____
ROOT
ATOM      1  C   UNL     1      47.954  81.618  41.696  0.00  0.00    +0.065 A 
ATOM      2  C   UNL     1      47.558  82.508  40.718  0.00  0.00    +0.016 A 
ATOM      3  C   UNL     1      46.518  82.231  39.866  0.00  0.00    +0.008 A 
ATOM      4  C   UNL     1      45.811  81.046  39.941  0.00  0.00    +0.076 A 
ATOM      5  C   UNL     1      46.205  80.152  40.920  0.00  0.00    +0.008 A 
ATOM      6  C   UNL     1      47.252  80.428  41.779  0.00  0.00    +0.016 A 
ENDROOT
BRANCH   4   7
ATOM      7  C   UNL     1      44.709  80.758  39.031  0.00  0.00    +0.341 C 
ATOM      8  O   UNL     1      44.429  81.540  38.093  0.00  0.00    -0.245 OA
BRANCH   7   9
ATOM      9  O   UNL     1      43.972  79.618  39.211  0.00  0.00    -0.444 OA
BRANCH   9  10
ATOM     10  C   UNL     1      42.838  79.259  38.444  0.00  0.00    +0.226 C 
BRANCH  10  11
ATOM     11  C   UNL     1      42.465  77.835  38.810  0.00  0.00    +0.120 C 
BRANCH  11  12
ATOM     12  N   UNL     1      41.254  77.384  38.201  0.00  0.00    -0.267 NA
ATOM     13  C   UNL     1      41.062  77.783  36.844  0.00  0.00    +0.090 C 
ATOM     14  C   UNL     1      41.065  75.990  38.450  0.00  0.00    +0.090 C 
ENDBRANCH  11  12
ENDBRANCH  10  11
ENDBRANCH   9  10
ENDBRANCH   7   9
ENDBRANCH   4   7
BRANCH   1  15
ATOM     15  N   UNL     1      49.028  81.932  42.557  0.00  0.00    -0.238 NA
BRANCH  15  16
ATOM     16  C   UNL     1      50.071  82.800  42.072  0.00  0.00    +0.112 C 
BRANCH  16  17
ATOM     17  C   UNL     1      50.339  83.867  43.102  0.00  0.00    +0.023 C 
BRANCH  17  19
ATOM     18  C   UNL     1      48.686  85.642  43.497  0.00  0.00    +0.000 C 
ATOM     19  C   UNL     1      49.003  84.196  43.756  0.00  0.00    +0.002 C 
ENDBRANCH  17  19
ENDBRANCH  16  17
ENDBRANCH  15  16
ENDBRANCH   1  15
TORSDOF 9
