REMARK  Name = Tetrahydrobiopterin
REMARK  2 active torsions:
REMARK  status: ('A' for Active; 'I' for Inactive)
REMARK    1  A    between atoms: C_2  and  C_3
REMARK    2  A    between atoms: C_3  and  C_4
REMARK                            x       y       z     vdW  Elec       q    Type
REMARK                         _______ _______ _______ _____ _____    ______ ____
ROOT
ATOM      1  C   UNL     1      43.951  78.507  40.390  0.00  0.00    +0.147 C 
ATOM      2  C   UNL     1      43.865  78.668  38.904  0.00  0.00    +0.138 C 
ATOM      3  N   UNL     1      43.964  80.085  38.608  0.00  0.00    -0.217 NA
ATOM      4  C   UNL     1      45.096  80.779  39.136  0.00  0.00    +0.170 A 
ATOM      5  C   UNL     1      45.711  80.251  40.259  0.00  0.00    +0.157 A 
ATOM      6  N   UNL     1      45.203  79.062  40.832  0.00  0.00    -0.228 NA
ATOM      7  C   UNL     1      46.815  80.893  40.808  0.00  0.00    +0.299 A 
ATOM      8  O   UNL     1      47.351  80.397  41.819  0.00  0.00    -0.264 OA
ATOM      9  N   UNL     1      47.234  82.007  40.212  0.00  0.00    -0.171 NA
ATOM     10  C   UNL     1      46.638  82.529  39.114  0.00  0.00    +0.260 A 
ATOM     11  N   UNL     1      45.563  81.906  38.579  0.00  0.00    -0.193 NA
ATOM     12  N   UNL     1      47.179  83.718  38.575  0.00  0.00    -0.086 NA
ENDROOT
BRANCH   1  13
ATOM     13  C   UNL     1      43.807  77.094  40.861  0.00  0.00    +0.203 C 
ATOM     14  O   UNL     1      42.504  76.640  40.688  0.00  0.00    -0.219 OA
BRANCH  13  16
ATOM     15  C   UNL     1      45.733  75.667  41.364  0.00  0.00    +0.038 C 
ATOM     16  C   UNL     1      44.814  76.154  40.264  0.00  0.00    +0.184 C 
ATOM     17  O   UNL     1      44.226  75.041  39.678  0.00  0.00    -0.220 OA
ENDBRANCH  13  16
ENDBRANCH   1  13
TORSDOF 2
