REMARK  Name = Tetrodotoxin
REMARK  1 active torsions:
REMARK  status: ('A' for Active; 'I' for Inactive)
REMARK    1  A    between atoms: C_1  and  C_2
REMARK                            x       y       z     vdW  Elec       q    Type
REMARK                         _______ _______ _______ _____ _____    ______ ____
ROOT
ATOM      1  C   UNL     1      47.875  83.293  42.309  0.00  0.00    +0.209 C 
ATOM      2  C   UNL     1      47.924  83.145  40.790  0.00  0.00    +0.159 C 
ATOM      3  C   UNL     1      46.662  82.355  40.448  0.00  0.00    +0.108 C 
ATOM      4  C   UNL     1      46.297  82.438  39.019  0.00  0.00    +0.260 C 
ATOM      5  N   UNL     1      45.793  81.237  38.421  0.00  0.00    -0.209 NA
ATOM      6  C   UNL     1      45.541  80.173  39.090  0.00  0.00    +0.239 C 
ATOM      7  N   UNL     1      45.766  80.165  40.499  0.00  0.00    -0.203 NA
ATOM      8  C   UNL     1      46.831  80.987  41.013  0.00  0.00    +0.151 C 
ATOM      9  C   UNL     1      46.865  81.071  42.502  0.00  0.00    +0.203 C 
ATOM     10  C   UNL     1      48.039  81.926  42.903  0.00  0.00    +0.185 C 
ATOM     11  O   UNL     1      49.236  81.399  42.431  0.00  0.00    -0.306 OA
ATOM     12  C   UNL     1      49.255  81.276  41.056  0.00  0.00    +0.354 C 
ATOM     13  C   UNL     1      48.154  80.349  40.570  0.00  0.00    +0.255 C 
ATOM     14  O   UNL     1      48.230  79.103  41.162  0.00  0.00    -0.213 OA
ATOM     15  O   UNL     1      49.073  82.489  40.394  0.00  0.00    -0.309 OA
ATOM     16  O   UNL     1      50.463  80.737  40.677  0.00  0.00    -0.162 OA
ATOM     17  O   UNL     1      47.057  79.808  43.075  0.00  0.00    -0.219 OA
ATOM     18  N   UNL     1      45.043  79.031  38.405  0.00  0.00    -0.089 NA
ATOM     19  O   UNL     1      45.325  83.453  38.823  0.00  0.00    -0.196 OA
ATOM     20  O   UNL     1      46.626  83.803  42.626  0.00  0.00    -0.218 OA
ENDROOT
BRANCH   1  21
ATOM     21  C   UNL     1      48.967  84.246  42.721  0.00  0.00    +0.217 C 
ATOM     22  O   UNL     1      48.330  85.480  42.990  0.00  0.00    -0.217 OA
ENDBRANCH   1  21
TORSDOF 1
