REMARK  Name = Tezacaftor_and_ivacaftor
REMARK  12 active torsions:
REMARK  status: ('A' for Active; 'I' for Inactive)
REMARK    1  A    between atoms: C_2  and  C_5
REMARK    2  A    between atoms: C_7  and  C_26
REMARK    3  A    between atoms: C_10  and  N_11
REMARK    4  A    between atoms: C_12  and  C_14
REMARK    5  A    between atoms: C_31  and  C_33
REMARK    6  A    between atoms: C_31  and  C_35
REMARK    7  A    between atoms: C_39  and  N_50
REMARK    8  A    between atoms: N_43  and  C_44
REMARK    9  A    between atoms: C_44  and  C_45
REMARK   10  A    between atoms: C_45  and  C_46
REMARK   11  A    between atoms: C_51  and  C_53
REMARK   12  A    between atoms: C_53  and  C_56
REMARK                            x       y       z     vdW  Elec       q    Type
REMARK                         _______ _______ _______ _____ _____    ______ ____
ROOT
ATOM      1  C   UNL     1      43.510  76.699  40.289  0.00  0.00    -0.008 A 
ATOM      2  C   UNL     1      42.197  76.594  39.910  0.00  0.00    -0.004 A 
ATOM      3  C   UNL     1      41.747  77.147  38.735  0.00  0.00    +0.016 A 
ATOM      4  C   UNL     1      42.586  77.819  37.909  0.00  0.00    +0.193 A 
ATOM      5  C   UNL     1      43.881  77.942  38.249  0.00  0.00    +0.058 A 
ATOM      6  C   UNL     1      44.374  77.385  39.446  0.00  0.00    +0.073 A 
ATOM      7  O   UNL     1      42.108  78.376  36.717  0.00  0.00    -0.287 OA
ENDROOT
BRANCH   1   9
ATOM      8  C   UNL     1      43.024  75.098  42.053  0.00  0.00    +0.004 C 
ATOM      9  C   UNL     1      44.027  76.102  41.523  0.00  0.00    +0.020 C 
ATOM     10  C   UNL     1      45.296  75.299  41.261  0.00  0.00    +0.004 C 
ATOM     11  C   UNL     1      44.359  77.094  42.585  0.00  0.00    +0.004 C 
ENDBRANCH   1   9
BRANCH   3  12
ATOM     12  C   UNL     1      40.312  77.042  38.368  0.00  0.00    +0.022 C 
ATOM     13  C   UNL     1      39.556  78.097  39.146  0.00  0.00    +0.004 C 
ATOM     14  C   UNL     1      40.149  77.357  36.888  0.00  0.00    +0.004 C 
ATOM     15  C   UNL     1      39.724  75.719  38.703  0.00  0.00    +0.004 C 
ENDBRANCH   3  12
BRANCH   6  16
ATOM     16  N   UNL     1      45.684  77.442  39.715  0.00  0.00    -0.176 NA
ATOM     17  C   UNL     1      46.992  77.499  39.983  0.00  0.00    +0.274 C 
ATOM     18  O   UNL     1      47.507  78.624  39.604  0.00  0.00    -0.268 OA
BRANCH  17  19
ATOM     19  C   UNL     1      47.854  76.569  40.607  0.00  0.00    +0.113 A 
ATOM     20  C   UNL     1      49.245  76.780  40.571  0.00  0.00    +0.107 A 
ATOM     21  N   UNL     1      50.041  75.965  41.241  0.00  0.00    -0.243 NA
ATOM     22  C   UNL     1      49.579  74.933  41.963  0.00  0.00    +0.084 A 
ATOM     23  C   UNL     1      50.432  74.107  42.657  0.00  0.00    +0.019 A 
ATOM     24  C   UNL     1      49.965  73.050  43.403  0.00  0.00    +0.002 A 
ATOM     25  C   UNL     1      48.607  72.779  43.481  0.00  0.00    +0.000 A 
ATOM     26  C   UNL     1      47.754  73.602  42.790  0.00  0.00    +0.005 A 
ATOM     27  C   UNL     1      48.208  74.667  42.038  0.00  0.00    +0.057 A 
ATOM     28  C   UNL     1      47.404  75.509  41.347  0.00  0.00    +0.203 A 
ATOM     29  O   UNL     1      46.141  75.289  41.398  0.00  0.00    -0.286 OA
ENDBRANCH  17  19
ENDBRANCH   6  16
TORSDOF 4
REMARK  Name = Tezacaftor_and_ivacaftor
REMARK  12 active torsions:
REMARK  status: ('A' for Active; 'I' for Inactive)
REMARK    1  A    between atoms: C_2  and  C_5
REMARK    2  A    between atoms: C_7  and  C_26
REMARK    3  A    between atoms: C_10  and  N_11
REMARK    4  A    between atoms: C_12  and  C_14
REMARK    5  A    between atoms: C_31  and  C_33
REMARK    6  A    between atoms: C_31  and  C_35
REMARK    7  A    between atoms: C_39  and  N_50
REMARK    8  A    between atoms: N_43  and  C_44
REMARK    9  A    between atoms: C_44  and  C_45
REMARK   10  A    between atoms: C_45  and  C_46
REMARK   11  A    between atoms: C_51  and  C_53
REMARK   12  A    between atoms: C_53  and  C_56
REMARK                            x       y       z     vdW  Elec       q    Type
REMARK                         _______ _______ _______ _____ _____    ______ ____
ROOT
ATOM      1  C   UNL     1      41.507  76.027  38.919  0.00  0.00    +0.039 A 
ATOM      2  C   UNL     1      42.307  77.097  38.472  0.00  0.00    +0.014 A 
ATOM      3  C   UNL     1      43.179  77.437  39.443  0.00  0.00    +0.018 A 
ATOM      4  C   UNL     1      44.199  78.365  39.525  0.00  0.00    +0.020 A 
ATOM      5  C   UNL     1      45.007  78.494  40.631  0.00  0.00    +0.101 A 
ATOM      6  C   UNL     1      44.758  77.652  41.681  0.00  0.00    +0.157 A 
ATOM      7  C   UNL     1      43.747  76.710  41.638  0.00  0.00    +0.048 A 
ATOM      8  C   UNL     1      42.942  76.596  40.502  0.00  0.00    +0.062 A 
ATOM      9  N   UNL     1      41.925  75.750  40.169  0.00  0.00    -0.328 N 
ATOM     10  F   UNL     1      45.524  77.731  42.804  0.00  0.00    -0.203 F 
ENDROOT
BRANCH   1  12
ATOM     11  C   UNL     1      40.907  73.931  37.852  0.00  0.00    +0.009 C 
ATOM     12  C   UNL     1      40.513  75.418  38.050  0.00  0.00    +0.064 C 
ATOM     13  C   UNL     1      40.255  75.951  36.714  0.00  0.00    +0.009 C 
BRANCH  12  14
ATOM     14  C   UNL     1      39.241  75.294  38.898  0.00  0.00    +0.187 C 
ATOM     15  O   UNL     1      38.153  74.886  38.155  0.00  0.00    -0.220 OA
ENDBRANCH  12  14
ENDBRANCH   1  12
BRANCH   5  16
ATOM     16  N   UNL     1      46.054  79.491  40.614  0.00  0.00    -0.177 NA
ATOM     17  C   UNL     1      45.858  80.715  39.967  0.00  0.00    +0.248 C 
ATOM     18  O   UNL     1      44.604  80.918  39.638  0.00  0.00    -0.273 OA
BRANCH  17  19
ATOM     19  C   UNL     1      46.802  81.796  39.618  0.00  0.00    +0.090 C 
ATOM     20  C   UNL     1      46.093  83.018  38.992  0.00  0.00    +0.014 C 
ATOM     21  C   UNL     1      46.928  82.139  38.134  0.00  0.00    +0.014 C 
BRANCH  19  22
ATOM     22  C   UNL     1      47.855  82.307  40.535  0.00  0.00    -0.011 A 
ATOM     23  C   UNL     1      47.482  83.310  41.468  0.00  0.00    +0.037 A 
ATOM     24  C   UNL     1      48.320  83.809  42.423  0.00  0.00    +0.181 A 
ATOM     25  C   UNL     1      49.611  83.338  42.512  0.00  0.00    +0.182 A 
ATOM     26  C   UNL     1      50.005  82.374  41.625  0.00  0.00    +0.040 A 
ATOM     27  C   UNL     1      49.109  81.860  40.633  0.00  0.00    -0.001 A 
ATOM     28  O   UNL     1      50.243  84.028  43.575  0.00  0.00    -0.395 OA
ATOM     29  C   UNL     1      49.185  84.487  44.433  0.00  0.00    +0.589 C 
ATOM     30  O   UNL     1      48.194  84.765  43.432  0.00  0.00    -0.395 OA
ATOM     31  F   UNL     1      48.792  83.461  45.275  0.00  0.00    -0.125 F 
ATOM     32  F   UNL     1      49.497  85.611  45.134  0.00  0.00    -0.125 F 
ENDBRANCH  19  22
ENDBRANCH  17  19
ENDBRANCH   5  16
BRANCH   9  33
ATOM     33  C   UNL     1      41.378  74.740  41.068  0.00  0.00    +0.141 C 
BRANCH  33  34
ATOM     34  C   UNL     1      41.620  75.008  42.536  0.00  0.00    +0.207 C 
ATOM     35  O   UNL     1      40.543  75.669  43.112  0.00  0.00    -0.218 OA
BRANCH  34  36
ATOM     36  C   UNL     1      41.807  73.711  43.309  0.00  0.00    +0.217 C 
ATOM     37  O   UNL     1      41.705  72.636  42.420  0.00  0.00    -0.218 OA
ENDBRANCH  34  36
ENDBRANCH  33  34
ENDBRANCH   9  33
TORSDOF 8
