REMARK  Name = Thalidomide
REMARK  1 active torsions:
REMARK  status: ('A' for Active; 'I' for Inactive)
REMARK    1  A    between atoms: C_8  and  N_9
REMARK                            x       y       z     vdW  Elec       q    Type
REMARK                         _______ _______ _______ _____ _____    ______ ____
ROOT
ATOM      1  N   UNL     1      45.041  80.009  40.045  0.00  0.00    -0.216 N 
ATOM      2  C   UNL     1      44.055  79.992  39.020  0.00  0.00    +0.255 C 
ATOM      3  O   UNL     1      43.866  80.868  38.130  0.00  0.00    -0.269 OA
ATOM      4  C   UNL     1      43.242  78.790  39.113  0.00  0.00    +0.058 A 
ATOM      5  C   UNL     1      42.180  78.291  38.389  0.00  0.00    +0.005 A 
ATOM      6  C   UNL     1      41.604  77.090  38.730  0.00  0.00    +0.000 A 
ATOM      7  C   UNL     1      42.117  76.403  39.813  0.00  0.00    +0.000 A 
ATOM      8  C   UNL     1      43.171  76.872  40.552  0.00  0.00    +0.005 A 
ATOM      9  C   UNL     1      43.732  78.079  40.190  0.00  0.00    +0.058 A 
ATOM     10  C   UNL     1      44.843  78.817  40.778  0.00  0.00    +0.255 C 
ATOM     11  O   UNL     1      45.563  78.510  41.779  0.00  0.00    -0.269 OA
ENDROOT
BRANCH   1  19
ATOM     12  C   UNL     1      47.407  80.529  40.423  0.00  0.00    +0.039 C 
ATOM     13  C   UNL     1      48.309  81.631  40.884  0.00  0.00    +0.089 C 
ATOM     14  C   UNL     1      48.071  82.879  40.119  0.00  0.00    +0.248 C 
ATOM     15  O   UNL     1      48.683  83.937  40.446  0.00  0.00    -0.273 OA
ATOM     16  N   UNL     1      47.160  82.882  39.027  0.00  0.00    -0.143 NA
ATOM     17  C   UNL     1      46.051  81.997  39.081  0.00  0.00    +0.266 C 
ATOM     18  O   UNL     1      45.188  82.051  38.173  0.00  0.00    -0.271 OA
ATOM     19  C   UNL     1      46.008  81.063  40.232  0.00  0.00    +0.162 C 
ENDBRANCH   1  19
TORSDOF 1
