REMARK  Name = Theobromine
REMARK  0 active torsions:
REMARK  status: ('A' for Active; 'I' for Inactive)
REMARK                            x       y       z     vdW  Elec       q    Type
REMARK                         _______ _______ _______ _____ _____    ______ ____
ROOT
ATOM      1  C   UNL     1      43.802  79.350  38.852  0.00  0.00    +0.132 C 
ATOM      2  N   UNL     1      44.913  79.616  39.777  0.00  0.00    -0.302 N 
ATOM      3  C   UNL     1      45.316  78.853  40.812  0.00  0.00    +0.180 A 
ATOM      4  N   UNL     1      46.367  79.431  41.423  0.00  0.00    -0.206 NA
ATOM      5  C   UNL     1      46.665  80.583  40.793  0.00  0.00    +0.170 A 
ATOM      6  C   UNL     1      45.743  80.678  39.769  0.00  0.00    +0.154 A 
ATOM      7  C   UNL     1      45.807  81.769  38.948  0.00  0.00    +0.302 A 
ATOM      8  O   UNL     1      44.968  81.862  38.011  0.00  0.00    -0.263 OA
ATOM      9  N   UNL     1      46.758  82.686  39.182  0.00  0.00    -0.152 NA
ATOM     10  C   UNL     1      47.651  82.579  40.186  0.00  0.00    +0.354 A 
ATOM     11  O   UNL     1      48.530  83.460  40.374  0.00  0.00    -0.244 OA
ATOM     12  N   UNL     1      47.611  81.515  41.009  0.00  0.00    -0.261 N 
ATOM     13  C   UNL     1      48.580  81.407  42.092  0.00  0.00    +0.137 C 
ENDROOT
TORSDOF 0
