REMARK  Name = Theophylline
REMARK  0 active torsions:
REMARK  status: ('A' for Active; 'I' for Inactive)
REMARK                            x       y       z     vdW  Elec       q    Type
REMARK                         _______ _______ _______ _____ _____    ______ ____
ROOT
ATOM      1  C   UNL     1      47.229  79.540  42.238  0.00  0.00    +0.137 C 
ATOM      2  N   UNL     1      46.548  80.137  41.100  0.00  0.00    -0.263 N 
ATOM      3  C   UNL     1      47.009  81.320  40.632  0.00  0.00    +0.172 A 
ATOM      4  C   UNL     1      46.377  81.898  39.557  0.00  0.00    +0.173 A 
ATOM      5  C   UNL     1      45.303  81.229  39.017  0.00  0.00    +0.285 A 
ATOM      6  O   UNL     1      44.695  81.720  38.034  0.00  0.00    -0.265 OA
ATOM      7  N   UNL     1      44.863  80.052  39.502  0.00  0.00    -0.245 N 
ATOM      8  C   UNL     1      45.494  79.499  40.556  0.00  0.00    +0.335 A 
ATOM      9  O   UNL     1      45.092  78.390  41.025  0.00  0.00    -0.246 OA
ATOM     10  C   UNL     1      43.730  79.337  38.941  0.00  0.00    +0.138 C 
ATOM     11  N   UNL     1      47.027  83.050  39.299  0.00  0.00    -0.216 NA
ATOM     12  C   UNL     1      48.040  83.227  40.163  0.00  0.00    +0.200 A 
ATOM     13  N   UNL     1      48.011  82.154  40.971  0.00  0.00    -0.205 NA
ENDROOT
TORSDOF 0
