REMARK  Name = Thiamphenicol
REMARK  6 active torsions:
REMARK  status: ('A' for Active; 'I' for Inactive)
REMARK    1  A    between atoms: S_2  and  C_5
REMARK    2  A    between atoms: C_8  and  C_11
REMARK    3  A    between atoms: C_11  and  C_12
REMARK    4  A    between atoms: C_12  and  C_13
REMARK    5  A    between atoms: C_12  and  N_15
REMARK    6  A    between atoms: C_16  and  C_18
REMARK                            x       y       z     vdW  Elec       q    Type
REMARK                         _______ _______ _______ _____ _____    ______ ____
ROOT
ATOM      1  C   UNK A   1      45.562  81.206  39.049  0.00  0.00    +0.197 C 
ATOM      2  O   UNK A   1      45.934  81.000  37.718  0.00  0.00    -0.216 OA
ENDROOT
BRANCH   1   6
ATOM      3  C   UNK A   1      44.528  77.514  40.969  0.00  0.00    +0.106 A 
ATOM      4  C   UNK A   1      44.395  77.667  39.620  0.00  0.00    +0.018 A 
ATOM      5  C   UNK A   1      44.732  78.870  38.995  0.00  0.00    -0.000 A 
ATOM      6  C   UNK A   1      45.212  79.950  39.710  0.00  0.00    +0.010 A 
ATOM      7  C   UNK A   1      45.337  79.771  41.072  0.00  0.00    -0.000 A 
ATOM      8  C   UNK A   1      45.001  78.572  41.694  0.00  0.00    +0.018 A 
BRANCH   3  10
ATOM      9  C   UNK A   1      45.405  74.834  41.697  0.00  0.00    +0.182 C 
ATOM     10  S   UNK A   1      44.122  76.031  41.815  0.00  0.00    +0.010 S 
ATOM     11  O   UNK A   1      43.867  76.402  43.249  0.00  0.00    -0.169 OA
ATOM     12  O   UNK A   1      42.857  75.421  41.280  0.00  0.00    -0.169 OA
ENDBRANCH   3  10
ENDBRANCH   1   6
BRANCH   1  13
ATOM     13  C   UNK A   1      46.611  82.019  39.765  0.00  0.00    +0.163 C 
BRANCH  13  14
ATOM     14  N   UNK A   1      47.674  81.182  40.258  0.00  0.00    -0.199 NA
ATOM     15  C   UNK A   0      48.481  81.620  41.332  0.00  0.00    +0.272 C 
ATOM     16  O   UNK A   0      48.104  82.610  41.982  0.00  0.00    -0.271 OA
BRANCH  15  17
ATOM     17  C   UNK A   0      49.753  80.964  41.730  0.00  0.00    +0.236 C 
ATOM     18 CL   UNK A   0      51.126  82.056  41.737  0.00  0.00    -0.087 Cl
ATOM     19 CL   UNK A   0      49.510  80.346  43.402  0.00  0.00    -0.087 Cl
ENDBRANCH  15  17
ENDBRANCH  13  14
BRANCH  13  20
ATOM     20  C   UNK A   1      47.091  83.198  38.966  0.00  0.00    +0.207 C 
ATOM     21  O   UNK A   1      46.008  83.928  38.473  0.00  0.00    -0.218 OA
ENDBRANCH  13  20
ENDBRANCH   1  13
TORSDOF 6
