REMARK  Name = Thiamine_Hydrochloride
REMARK  4 active torsions:
REMARK  status: ('A' for Active; 'I' for Inactive)
REMARK    1  A    between atoms: C_3  and  C_16
REMARK    2  A    between atoms: N_6  and  C_7
REMARK    3  A    between atoms: C_7  and  C_8
REMARK    4  A    between atoms: C_16  and  C_17
REMARK                            x       y       z     vdW  Elec       q    Type
REMARK                         _______ _______ _______ _____ _____    ______ ____
ROOT
ATOM      1  C   UNL     1      47.904  82.024  43.614  0.00  0.00    +0.050 C 
ATOM      2  C   UNL     1      48.822  82.574  42.525  0.00  0.00    +0.040 A 
ATOM      3  C   UNL     1      50.181  82.428  42.643  0.00  0.00    +0.023 A 
ATOM      4  S   UNL     1      50.756  83.178  41.232  0.00  0.00    -0.071 S 
ATOM      5  C   UNL     1      49.259  83.635  40.569  0.00  0.00    +0.112 A 
ATOM      6  N   UNL     1      48.364  83.194  41.457  0.00  0.00    -0.320 N 
ENDROOT
BRANCH   6   7
ATOM      7  C   UNL     1      46.911  83.431  41.228  0.00  0.00    +0.137 C 
BRANCH   7   8
ATOM      8  C   UNL     1      46.258  82.325  40.574  0.00  0.00    +0.054 A 
ATOM      9  C   UNL     1      45.484  81.440  41.298  0.00  0.00    +0.101 A 
ATOM     10  N   UNL     1      44.879  80.404  40.689  0.00  0.00    -0.229 NA
ATOM     11  C   UNL     1      45.002  80.194  39.372  0.00  0.00    +0.141 A 
ATOM     12  N   UNL     1      45.736  81.022  38.653  0.00  0.00    -0.213 NA
ATOM     13  C   UNL     1      46.360  82.077  39.233  0.00  0.00    +0.170 A 
ATOM     14  N   UNL     1      47.102  82.897  38.337  0.00  0.00    -0.107 NA
ATOM     15  C   UNL     1      44.317  79.039  38.739  0.00  0.00    +0.074 C 
ENDBRANCH   7   8
ENDBRANCH   6   7
BRANCH   3  16
ATOM     16  C   UNL     1      50.944  81.763  43.765  0.00  0.00    +0.070 C 
BRANCH  16  17
ATOM     17  C   UNL     1      50.865  80.274  43.681  0.00  0.00    +0.187 C 
ATOM     18  O   UNL     1      51.602  79.750  44.764  0.00  0.00    -0.220 OA
ENDBRANCH  16  17
ENDBRANCH   3  16
TORSDOF 4
REMARK  Name = Thiamine_Hydrochloride
REMARK  4 active torsions:
REMARK  status: ('A' for Active; 'I' for Inactive)
REMARK    1  A    between atoms: C_3  and  C_16
REMARK    2  A    between atoms: N_6  and  C_7
REMARK    3  A    between atoms: C_7  and  C_8
REMARK    4  A    between atoms: C_16  and  C_17
REMARK                            x       y       z     vdW  Elec       q    Type
REMARK                         _______ _______ _______ _____ _____    ______ ____
ROOT
ATOM      1 CL   UNL     1      48.368  81.735  41.895  0.00  0.00    +0.000 Cl
ENDROOT
TORSDOF 0
REMARK  Name = Thiamine_Hydrochloride
REMARK  4 active torsions:
REMARK  status: ('A' for Active; 'I' for Inactive)
REMARK    1  A    between atoms: C_3  and  C_16
REMARK    2  A    between atoms: N_6  and  C_7
REMARK    3  A    between atoms: C_7  and  C_8
REMARK    4  A    between atoms: C_16  and  C_17
REMARK                            x       y       z     vdW  Elec       q    Type
REMARK                         _______ _______ _______ _____ _____    ______ ____
ROOT
ATOM      1 CL   UNL     1      47.842  81.671  41.460  0.00  0.00    +0.000 Cl
ENDROOT
TORSDOF 0
