REMARK  Name = Thiacetazone
REMARK  4 active torsions:
REMARK  status: ('A' for Active; 'I' for Inactive)
REMARK    1  A    between atoms: N_4  and  C_5
REMARK    2  A    between atoms: C_8  and  C_11
REMARK    3  A    between atoms: N_12  and  N_13
REMARK    4  A    between atoms: N_13  and  C_14
REMARK                            x       y       z     vdW  Elec       q    Type
REMARK                         _______ _______ _______ _____ _____    ______ ____
ROOT
ATOM      1  C   UNL     1      44.236  78.864  39.818  0.00  0.00    +0.073 A 
ATOM      2  C   UNL     1      45.086  78.657  40.903  0.00  0.00    +0.017 A 
ATOM      3  C   UNL     1      46.077  79.547  41.238  0.00  0.00    +0.003 A 
ATOM      4  C   UNL     1      46.269  80.694  40.502  0.00  0.00    +0.021 A 
ATOM      5  C   UNL     1      45.429  80.885  39.442  0.00  0.00    +0.003 A 
ATOM      6  C   UNL     1      44.417  79.986  39.091  0.00  0.00    +0.017 A 
ENDROOT
BRANCH   1  10
ATOM      7  C   UNL     1      41.230  76.811  38.510  0.00  0.00    +0.097 C 
ATOM      8  C   UNL     1      42.145  77.998  38.729  0.00  0.00    +0.246 C 
ATOM      9  O   UNL     1      41.884  79.065  38.144  0.00  0.00    -0.273 OA
ATOM     10  N   UNL     1      43.263  77.883  39.577  0.00  0.00    -0.179 NA
ENDBRANCH   1  10
BRANCH   4  11
ATOM     11  C   UNL     1      47.322  81.671  40.834  0.00  0.00    +0.120 C 
ATOM     12  N   UNL     1      48.372  81.278  41.430  0.00  0.00    -0.155 NA
BRANCH  12  13
ATOM     13  N   UNL     1      49.573  81.962  41.369  0.00  0.00    -0.091 NA
BRANCH  13  14
ATOM     14  C   UNL     1      50.389  82.048  42.528  0.00  0.00    +0.215 C 
ATOM     15  S   UNL     1      51.751  82.962  42.561  0.00  0.00    -0.012 S 
ATOM     16  N   UNL     1      50.066  81.344  43.716  0.00  0.00    -0.100 NA
ENDBRANCH  13  14
ENDBRANCH  12  13
ENDBRANCH   4  11
TORSDOF 4
