REMARK  Name = Thiamylal
REMARK  5 active torsions:
REMARK  status: ('A' for Active; 'I' for Inactive)
REMARK    1  A    between atoms: C_2  and  C_3
REMARK    2  A    between atoms: C_3  and  C_4
REMARK    3  A    between atoms: C_4  and  C_6
REMARK    4  A    between atoms: C_6  and  C_15
REMARK    5  A    between atoms: C_15  and  C_16
REMARK                            x       y       z     vdW  Elec       q    Type
REMARK                         _______ _______ _______ _____ _____    ______ ____
ROOT
ATOM      1  C   UNL     1      46.916  81.321  40.664  0.00  0.00    +0.145 C 
ATOM      2  C   UNL     1      46.118  81.963  39.607  0.00  0.00    +0.255 C 
ATOM      3  O   UNL     1      44.865  81.874  39.658  0.00  0.00    -0.272 OA
ATOM      4  N   UNL     1      46.702  82.676  38.534  0.00  0.00    -0.156 NA
ATOM      5  C   UNL     1      48.112  82.601  38.261  0.00  0.00    +0.184 C 
ATOM      6  S   UNL     1      48.719  83.448  37.008  0.00  0.00    -0.015 S 
ATOM      7  N   UNL     1      48.904  81.797  39.089  0.00  0.00    -0.156 NA
ATOM      8  C   UNL     1      48.346  81.092  40.146  0.00  0.00    +0.255 C 
ATOM      9  O   UNL     1      48.988  80.212  40.752  0.00  0.00    -0.272 OA
ENDROOT
BRANCH   1  10
ATOM     10  C   UNL     1      47.113  82.157  41.867  0.00  0.00    +0.017 C 
ATOM     11  C   UNL     1      47.912  81.334  42.930  0.00  0.00    +0.001 C 
BRANCH  10  12
ATOM     12  C   UNL     1      47.771  83.457  41.809  0.00  0.00    +0.001 C 
BRANCH  12  14
ATOM     13  C   UNL     1      48.354  84.693  43.910  0.00  0.00    +0.000 C 
ATOM     14  C   UNL     1      47.428  84.548  42.742  0.00  0.00    +0.000 C 
ENDBRANCH  12  14
ENDBRANCH  10  12
ENDBRANCH   1  10
BRANCH   1  15
ATOM     15  C   UNL     1      46.459  79.930  40.996  0.00  0.00    +0.044 C 
BRANCH  15  16
ATOM     16  C   UNL     1      45.528  79.421  39.906  0.00  0.00    -0.025 C 
ATOM     17  C   UNL     1      44.816  78.321  40.079  0.00  0.00    -0.005 C 
ENDBRANCH  15  16
ENDBRANCH   1  15
TORSDOF 5
