REMARK  Name = Thiethylperazine
REMARK  6 active torsions:
REMARK  status: ('A' for Active; 'I' for Inactive)
REMARK    1  A    between atoms: C_2  and  S_3
REMARK    2  A    between atoms: S_3  and  C_4
REMARK    3  A    between atoms: N_17  and  C_18
REMARK    4  A    between atoms: C_18  and  C_19
REMARK    5  A    between atoms: C_19  and  C_20
REMARK    6  A    between atoms: C_20  and  N_21
REMARK                            x       y       z     vdW  Elec       q    Type
REMARK                         _______ _______ _______ _____ _____    ______ ____
ROOT
ATOM      1  C   UNL     1      47.438  81.178  40.243  0.00  0.00    +0.026 A 
ATOM      2  C   UNL     1      46.514  80.250  39.820  0.00  0.00    +0.021 A 
ATOM      3  C   UNL     1      46.006  79.261  40.671  0.00  0.00    +0.058 A 
ATOM      4  C   UNL     1      46.510  79.303  41.952  0.00  0.00    +0.043 A 
ATOM      5  C   UNL     1      47.431  80.229  42.370  0.00  0.00    +0.008 A 
ATOM      6  C   UNL     1      47.920  81.194  41.525  0.00  0.00    +0.007 A 
ATOM      7  S   UNL     1      45.980  78.119  43.145  0.00  0.00    -0.084 S 
ATOM      8  C   UNL     1      44.847  77.021  42.322  0.00  0.00    +0.043 A 
ATOM      9  C   UNL     1      44.308  75.982  43.049  0.00  0.00    +0.008 A 
ATOM     10  C   UNL     1      43.416  75.093  42.500  0.00  0.00    +0.001 A 
ATOM     11  C   UNL     1      43.086  75.293  41.181  0.00  0.00    +0.001 A 
ATOM     12  C   UNL     1      43.631  76.336  40.463  0.00  0.00    +0.015 A 
ATOM     13  C   UNL     1      44.536  77.242  41.011  0.00  0.00    +0.058 A 
ATOM     14  N   UNL     1      45.071  78.300  40.199  0.00  0.00    -0.286 N 
ENDROOT
BRANCH   1  15
ATOM     15  S   UNL     1      48.040  82.409  39.094  0.00  0.00    -0.114 S 
BRANCH  15  17
ATOM     16  C   UNL     1      50.410  83.517  38.367  0.00  0.00    +0.013 C 
ATOM     17  C   UNL     1      49.620  83.112  39.614  0.00  0.00    +0.062 C 
ENDBRANCH  15  17
ENDBRANCH   1  15
BRANCH  14  18
ATOM     18  C   UNL     1      44.649  78.396  38.817  0.00  0.00    +0.097 C 
BRANCH  18  19
ATOM     19  C   UNL     1      43.242  78.956  38.669  0.00  0.00    +0.039 C 
BRANCH  19  20
ATOM     20  C   UNL     1      42.353  77.981  37.919  0.00  0.00    +0.074 C 
BRANCH  20  21
ATOM     21  N   UNL     1      41.012  77.945  38.405  0.00  0.00    -0.270 NA
ATOM     22  C   UNL     1      40.646  76.567  38.702  0.00  0.00    +0.090 C 
ATOM     23  C   UNL     1      40.597  75.688  37.493  0.00  0.00    +0.090 C 
ATOM     24  N   UNL     1      39.675  76.206  36.499  0.00  0.00    -0.269 NA
ATOM     25  C   UNL     1      39.958  77.599  36.204  0.00  0.00    +0.090 C 
ATOM     26  C   UNL     1      40.024  78.430  37.466  0.00  0.00    +0.090 C 
ATOM     27  C   UNL     1      38.289  76.010  36.877  0.00  0.00    +0.090 C 
ENDBRANCH  20  21
ENDBRANCH  19  20
ENDBRANCH  18  19
ENDBRANCH  14  18
TORSDOF 6
