REMARK  Name = Thiothixene
REMARK  5 active torsions:
REMARK  status: ('A' for Active; 'I' for Inactive)
REMARK    1  A    between atoms: N_5  and  C_8
REMARK    2  A    between atoms: C_8  and  C_9
REMARK    3  A    between atoms: C_9  and  C_10
REMARK    4  A    between atoms: C_22  and  S_25
REMARK    5  A    between atoms: S_25  and  N_28
REMARK                            x       y       z     vdW  Elec       q    Type
REMARK                         _______ _______ _______ _____ _____    ______ ____
ROOT
ATOM      1  C   UNL     1      42.722  77.971  39.515  0.00  0.00    -0.025 C 
ATOM      2  C   UNL     1      43.554  77.587  40.453  0.00  0.00    -0.003 C 
ATOM      3  C   UNL     1      43.287  76.427  41.285  0.00  0.00    +0.006 A 
ATOM      4  C   UNL     1      42.412  75.423  40.830  0.00  0.00    +0.000 A 
ATOM      5  C   UNL     1      42.203  74.224  41.505  0.00  0.00    +0.000 A 
ATOM      6  C   UNL     1      42.879  73.992  42.670  0.00  0.00    +0.001 A 
ATOM      7  C   UNL     1      43.749  74.940  43.153  0.00  0.00    +0.006 A 
ATOM      8  C   UNL     1      43.925  76.120  42.450  0.00  0.00    +0.029 A 
ATOM      9  S   UNL     1      45.090  77.266  43.154  0.00  0.00    -0.087 S 
ATOM     10  C   UNL     1      45.402  78.489  41.917  0.00  0.00    +0.030 A 
ATOM     11  C   UNL     1      44.617  78.568  40.814  0.00  0.00    +0.007 A 
ATOM     12  C   UNL     1      44.898  79.589  39.931  0.00  0.00    +0.020 A 
ATOM     13  C   UNL     1      45.940  80.509  40.145  0.00  0.00    +0.122 A 
ATOM     14  C   UNL     1      46.692  80.372  41.273  0.00  0.00    +0.020 A 
ATOM     15  C   UNL     1      46.414  79.358  42.153  0.00  0.00    +0.008 A 
ENDROOT
BRANCH  13  16
ATOM     16  S   UNL     1      46.279  81.799  39.009  0.00  0.00    +0.063 S 
ATOM     17  O   UNL     1      46.601  81.290  37.647  0.00  0.00    -0.153 OA
ATOM     18  O   UNL     1      45.055  82.667  38.933  0.00  0.00    -0.153 OA
BRANCH  16  19
ATOM     19  N   UNL     1      47.585  82.757  39.639  0.00  0.00    -0.153 NA
ATOM     20  C   UNL     1      48.752  81.930  39.852  0.00  0.00    +0.115 C 
ATOM     21  C   UNL     1      47.197  83.368  40.891  0.00  0.00    +0.115 C 
ENDBRANCH  16  19
ENDBRANCH  13  16
BRANCH   1  22
ATOM     22  C   UNL     1      41.411  77.543  39.111  0.00  0.00    +0.043 C 
BRANCH  22  23
ATOM     23  C   UNL     1      41.340  77.360  37.611  0.00  0.00    +0.077 C 
BRANCH  23  28
ATOM     24  C   UNL     1      37.501  74.680  34.878  0.00  0.00    +0.090 C 
ATOM     25  N   UNL     1      38.165  75.048  36.068  0.00  0.00    -0.269 NA
ATOM     26  C   UNL     1      39.399  74.431  36.352  0.00  0.00    +0.090 C 
ATOM     27  C   UNL     1      40.544  75.324  36.630  0.00  0.00    +0.090 C 
ATOM     28  N   UNL     1      40.206  76.578  37.249  0.00  0.00    -0.270 NA
ATOM     29  C   UNL     1      39.109  77.257  36.666  0.00  0.00    +0.090 C 
ATOM     30  C   UNL     1      37.924  76.323  36.597  0.00  0.00    +0.090 C 
ENDBRANCH  23  28
ENDBRANCH  22  23
ENDBRANCH   1  22
TORSDOF 5
