REMARK  Name = THIOCOLCHICOSIDE
REMARK  7 active torsions:
REMARK  status: ('A' for Active; 'I' for Inactive)
REMARK    1  A    between atoms: N_4  and  C_5
REMARK    2  A    between atoms: C_10  and  O_28
REMARK    3  A    between atoms: C_11  and  O_26
REMARK    4  A    between atoms: C_12  and  O_24
REMARK    5  A    between atoms: C_17  and  S_22
REMARK    6  A    between atoms: O_28  and  C_29
REMARK    7  A    between atoms: C_33  and  C_35
REMARK                            x       y       z     vdW  Elec       q    Type
REMARK                         _______ _______ _______ _____ _____    ______ ____
ROOT
ATOM      1  C   UNL     1      47.868  83.119  40.956  0.00  0.00    +0.118 C 
ATOM      2  C   UNL     1      46.535  83.177  41.667  0.00  0.00    +0.031 C 
ATOM      3  C   UNL     1      45.366  82.674  40.915  0.00  0.00    +0.029 C 
ATOM      4  C   UNL     1      45.387  81.249  40.524  0.00  0.00    -0.016 A 
ATOM      5  C   UNL     1      44.225  80.804  39.962  0.00  0.00    +0.036 A 
ATOM      6  C   UNL     1      44.105  79.506  39.511  0.00  0.00    +0.178 A 
ATOM      7  C   UNL     1      45.202  78.622  39.632  0.00  0.00    +0.206 A 
ATOM      8  C   UNL     1      46.384  79.044  40.192  0.00  0.00    +0.175 A 
ATOM      9  C   UNL     1      46.449  80.322  40.623  0.00  0.00    +0.033 A 
ATOM     10  C   UNL     1      47.732  80.588  41.263  0.00  0.00    +0.000 A 
ATOM     11  C   UNL     1      47.989  79.378  41.876  0.00  0.00    +0.000 A 
ATOM     12  C   UNL     1      49.238  78.959  42.268  0.00  0.00    +0.009 A 
ATOM     13  C   UNL     1      50.435  79.666  42.322  0.00  0.00    +0.064 A 
ATOM     14  C   UNL     1      50.669  80.981  41.976  0.00  0.00    +0.201 A 
ATOM     15  O   UNL     1      51.879  81.353  42.077  0.00  0.00    -0.286 OA
ATOM     16  C   UNL     1      49.773  81.961  41.532  0.00  0.00    +0.040 A 
ATOM     17  C   UNL     1      48.450  81.793  41.257  0.00  0.00    +0.001 A 
ENDROOT
BRANCH   1  21
ATOM     18  C   UNL     1      47.499  84.540  43.487  0.00  0.00    +0.096 C 
ATOM     19  C   UNL     1      48.626  84.846  42.569  0.00  0.00    +0.242 C 
ATOM     20  O   UNL     1      49.527  85.686  42.844  0.00  0.00    -0.273 OA
ATOM     21  N   UNL     1      48.740  84.190  41.312  0.00  0.00    -0.203 NA
ENDBRANCH   1  21
BRANCH  13  22
ATOM     22  S   UNL     1      51.853  78.724  42.926  0.00  0.00    -0.110 S 
ATOM     23  C   UNL     1      52.139  77.331  41.800  0.00  0.00    +0.074 C 
ENDBRANCH  13  22
BRANCH   8  24
ATOM     24  O   UNL     1      47.453  78.186  40.291  0.00  0.00    -0.468 OA
ATOM     25  C   UNL     1      48.803  78.643  40.321  0.00  0.00    +0.253 C 
ENDBRANCH   8  24
BRANCH   7  26
ATOM     26  O   UNL     1      45.033  77.324  39.163  0.00  0.00    -0.465 OA
ATOM     27  C   UNL     1      45.273  76.187  39.966  0.00  0.00    +0.253 C 
ENDBRANCH   7  26
BRANCH   6  28
ATOM     28  O   UNL     1      42.957  79.035  38.948  0.00  0.00    -0.447 OA
BRANCH  28  29
ATOM     29  C   UNL     1      42.604  77.729  38.606  0.00  0.00    +0.322 C 
ATOM     30  C   UNL     1      41.798  77.687  37.343  0.00  0.00    +0.254 C 
ATOM     31  C   UNL     1      40.681  76.728  37.282  0.00  0.00    +0.221 C 
ATOM     32  C   UNL     1      40.312  76.017  38.531  0.00  0.00    +0.215 C 
ATOM     33  C   UNL     1      41.581  75.843  39.360  0.00  0.00    +0.185 C 
ATOM     34  O   UNL     1      41.962  77.146  39.694  0.00  0.00    -0.316 OA
ATOM     35  O   UNL     1      39.493  76.889  39.285  0.00  0.00    -0.218 OA
ATOM     36  O   UNL     1      39.531  77.325  36.747  0.00  0.00    -0.217 OA
ATOM     37  O   UNL     1      41.277  78.983  37.152  0.00  0.00    -0.213 OA
BRANCH  33  38
ATOM     38  C   UNL     1      41.273  75.004  40.573  0.00  0.00    +0.214 C 
ATOM     39  O   UNL     1      42.307  75.092  41.503  0.00  0.00    -0.218 OA
ENDBRANCH  33  38
ENDBRANCH  28  29
ENDBRANCH   6  28
TORSDOF 7
