REMARK  Name = Thiopental
REMARK  4 active torsions:
REMARK  status: ('A' for Active; 'I' for Inactive)
REMARK    1  A    between atoms: C_2  and  C_3
REMARK    2  A    between atoms: C_3  and  C_4
REMARK    3  A    between atoms: C_4  and  C_6
REMARK    4  A    between atoms: C_6  and  C_15
REMARK                            x       y       z     vdW  Elec       q    Type
REMARK                         _______ _______ _______ _____ _____    ______ ____
ROOT
ATOM      1  C   UNL     1      47.368  82.143  40.995  0.00  0.00    +0.141 C 
ATOM      2  C   UNL     1      46.542  82.518  39.810  0.00  0.00    +0.255 C 
ATOM      3  O   UNL     1      46.203  83.703  39.583  0.00  0.00    -0.272 OA
ATOM      4  N   UNL     1      46.103  81.533  38.880  0.00  0.00    -0.156 NA
ATOM      5  C   UNL     1      45.961  80.174  39.350  0.00  0.00    +0.184 C 
ATOM      6  S   UNL     1      45.464  79.009  38.339  0.00  0.00    -0.015 S 
ATOM      7  N   UNL     1      46.277  79.944  40.714  0.00  0.00    -0.156 NA
ATOM      8  C   UNL     1      46.712  80.969  41.599  0.00  0.00    +0.255 C 
ATOM      9  O   UNL     1      46.505  80.796  42.808  0.00  0.00    -0.272 OA
ENDROOT
BRANCH   1  10
ATOM     10  C   UNL     1      48.742  81.701  40.559  0.00  0.00    +0.017 C 
ATOM     11  C   UNL     1      48.737  80.288  40.075  0.00  0.00    +0.001 C 
BRANCH  10  12
ATOM     12  C   UNL     1      49.808  81.974  41.584  0.00  0.00    +0.001 C 
BRANCH  12  14
ATOM     13  C   UNL     1      50.052  83.794  43.284  0.00  0.00    +0.000 C 
ATOM     14  C   UNL     1      50.011  83.452  41.812  0.00  0.00    +0.000 C 
ENDBRANCH  12  14
ENDBRANCH  10  12
ENDBRANCH   1  10
BRANCH   1  15
ATOM     15  C   UNL     1      47.482  83.326  41.879  0.00  0.00    +0.017 C 
ATOM     16  C   UNL     1      46.179  83.904  42.344  0.00  0.00    +0.001 C 
ENDBRANCH   1  15
TORSDOF 4
