REMARK  Name = Tiagabine
REMARK  6 active torsions:
REMARK  status: ('A' for Active; 'I' for Inactive)
REMARK    1  A    between atoms: C_3  and  C_7
REMARK    2  A    between atoms: C_7  and  C_20
REMARK    3  A    between atoms: C_8  and  C_9
REMARK    4  A    between atoms: C_9  and  C_10
REMARK    5  A    between atoms: C_10  and  N_11
REMARK    6  A    between atoms: C_15  and  C_17
REMARK                            x       y       z     vdW  Elec       q    Type
REMARK                         _______ _______ _______ _____ _____    ______ ____
ROOT
ATOM      1  C   UNL     1      48.865  81.901  42.129  0.00  0.00    +0.007 C 
ATOM      2  C   UNL     1      48.196  80.883  41.738  0.00  0.00    -0.024 C 
ENDROOT
BRANCH   1   5
ATOM      3  C   UNL     1      51.099  83.582  40.430  0.00  0.00    +0.032 C 
ATOM      4  C   UNL     1      51.329  82.647  41.628  0.00  0.00    -0.015 A 
ATOM      5  C   UNL     1      50.353  81.913  42.180  0.00  0.00    +0.026 A 
ATOM      6  S   UNL     1      51.234  80.918  43.313  0.00  0.00    -0.087 S 
ATOM      7  C   UNL     1      52.797  81.502  43.021  0.00  0.00    +0.035 A 
ATOM      8  C   UNL     1      52.602  82.446  42.057  0.00  0.00    +0.003 A 
ENDBRANCH   1   5
BRANCH   1   9
ATOM      9  C   UNL     1      48.249  83.173  42.618  0.00  0.00    +0.026 A 
ATOM     10  C   UNL     1      48.643  84.164  43.435  0.00  0.00    -0.015 A 
ATOM     11  C   UNL     1      47.760  85.155  43.704  0.00  0.00    +0.003 A 
ATOM     12  C   UNL     1      46.526  85.084  43.126  0.00  0.00    +0.035 A 
ATOM     13  S   UNL     1      46.616  83.651  42.227  0.00  0.00    -0.087 S 
ATOM     14  C   UNL     1      50.048  84.240  44.021  0.00  0.00    +0.032 C 
ENDBRANCH   1   9
BRANCH   2  15
ATOM     15  C   UNL     1      46.923  80.907  41.012  0.00  0.00    +0.043 C 
BRANCH  15  16
ATOM     16  C   UNL     1      46.080  79.635  41.175  0.00  0.00    +0.077 C 
BRANCH  16  17
ATOM     17  N   UNL     1      44.984  79.542  40.346  0.00  0.00    -0.272 NA
ATOM     18  C   UNL     1      44.532  80.576  39.519  0.00  0.00    +0.072 C 
ATOM     19  C   UNL     1      44.312  79.929  38.111  0.00  0.00    +0.018 C 
ATOM     20  C   UNL     1      43.121  79.006  38.170  0.00  0.00    +0.014 C 
ATOM     21  C   UNL     1      43.004  78.441  39.541  0.00  0.00    +0.119 C 
ATOM     22  C   UNL     1      44.403  78.258  40.113  0.00  0.00    +0.083 C 
BRANCH  21  23
ATOM     23  C   UNL     1      42.291  77.142  39.583  0.00  0.00    +0.366 C 
ATOM     24  O   UNL     1      42.157  76.574  40.693  0.00  0.00    -0.246 OA
ATOM     25  O   UNL     1      41.771  76.535  38.458  0.00  0.00    -0.246 OA
ENDBRANCH  21  23
ENDBRANCH  16  17
ENDBRANCH  15  16
ENDBRANCH   2  15
TORSDOF 6
