REMARK  Name = Tianeptine
REMARK  8 active torsions:
REMARK  status: ('A' for Active; 'I' for Inactive)
REMARK    1  A    between atoms: C_9  and  N_20
REMARK    2  A    between atoms: N_20  and  C_21
REMARK    3  A    between atoms: C_21  and  C_22
REMARK    4  A    between atoms: C_22  and  C_23
REMARK    5  A    between atoms: C_23  and  C_24
REMARK    6  A    between atoms: C_24  and  C_25
REMARK    7  A    between atoms: C_25  and  C_26
REMARK    8  A    between atoms: C_26  and  C_27
REMARK                            x       y       z     vdW  Elec       q    Type
REMARK                         _______ _______ _______ _____ _____    ______ ____
ROOT
ATOM      1  C   UNL     1      52.088  79.482  42.837  0.00  0.00    +0.139 C 
ATOM      2  N   UNL     1      50.803  80.127  42.578  0.00  0.00    -0.189 N 
ATOM      3  C   UNL     1      50.032  79.421  41.598  0.00  0.00    +0.066 A 
ATOM      4  C   UNL     1      50.798  78.694  40.702  0.00  0.00    +0.016 A 
ATOM      5  C   UNL     1      50.176  77.986  39.696  0.00  0.00    +0.001 A 
ATOM      6  C   UNL     1      48.806  77.971  39.539  0.00  0.00    -0.000 A 
ATOM      7  C   UNL     1      48.033  78.700  40.437  0.00  0.00    -0.001 A 
ATOM      8  C   UNL     1      48.646  79.408  41.445  0.00  0.00    +0.013 A 
ATOM      9  C   UNL     1      47.667  80.133  42.330  0.00  0.00    +0.120 C 
ATOM     10  C   UNL     1      47.836  81.583  42.269  0.00  0.00    +0.017 A 
ATOM     11  C   UNL     1      48.974  82.262  42.724  0.00  0.00    +0.124 A 
ATOM     12  S   UNL     1      50.427  81.582  43.449  0.00  0.00    +0.076 S 
ATOM     13  O   UNL     1      51.579  82.526  43.255  0.00  0.00    -0.150 OA
ATOM     14  O   UNL     1      50.182  81.290  44.902  0.00  0.00    -0.150 OA
ATOM     15  C   UNL     1      49.035  83.636  42.622  0.00  0.00    +0.031 A 
ATOM     16  C   UNL     1      47.987  84.372  42.075  0.00  0.00    +0.059 A 
ATOM     17  C   UNL     1      46.877  83.690  41.634  0.00  0.00    +0.011 A 
ATOM     18  C   UNL     1      46.810  82.296  41.734  0.00  0.00    -0.000 A 
ATOM     19 CL   UNL     1      48.018  86.107  41.927  0.00  0.00    -0.082 Cl
ENDROOT
BRANCH   9  20
ATOM     20  N   UNL     1      46.346  79.632  42.207  0.00  0.00    -0.211 NA
BRANCH  20  21
ATOM     21  C   UNL     1      45.969  79.655  40.794  0.00  0.00    +0.089 C 
BRANCH  21  22
ATOM     22  C   UNL     1      45.086  78.513  40.429  0.00  0.00    +0.019 C 
BRANCH  22  23
ATOM     23  C   UNL     1      43.659  78.956  40.276  0.00  0.00    +0.001 C 
BRANCH  23  24
ATOM     24  C   UNL     1      43.069  78.712  38.927  0.00  0.00    +0.001 C 
BRANCH  24  25
ATOM     25  C   UNL     1      41.700  78.072  39.123  0.00  0.00    +0.012 C 
BRANCH  25  26
ATOM     26  C   UNL     1      41.057  77.836  37.751  0.00  0.00    +0.114 C 
BRANCH  26  27
ATOM     27  C   UNL     1      39.721  77.226  37.970  0.00  0.00    +0.365 C 
ATOM     28  O   UNL     1      39.427  76.570  39.000  0.00  0.00    -0.246 OA
ATOM     29  O   UNL     1      38.743  77.386  36.991  0.00  0.00    -0.246 OA
ENDBRANCH  26  27
ENDBRANCH  25  26
ENDBRANCH  24  25
ENDBRANCH  23  24
ENDBRANCH  22  23
ENDBRANCH  21  22
ENDBRANCH  20  21
ENDBRANCH   9  20
TORSDOF 8
