REMARK  Name = Tiapride
REMARK  8 active torsions:
REMARK  status: ('A' for Active; 'I' for Inactive)
REMARK    1  A    between atoms: C_2  and  N_3
REMARK    2  A    between atoms: N_3  and  C_4
REMARK    3  A    between atoms: N_3  and  C_6
REMARK    4  A    between atoms: C_6  and  C_7
REMARK    5  A    between atoms: C_7  and  N_8
REMARK    6  A    between atoms: C_9  and  C_11
REMARK    7  A    between atoms: C_12  and  O_21
REMARK    8  A    between atoms: C_15  and  S_17
REMARK                            x       y       z     vdW  Elec       q    Type
REMARK                         _______ _______ _______ _____ _____    ______ ____
ROOT
ATOM      1  C   UNL     1      45.937  79.883  40.825  0.00  0.00    +0.090 A 
ATOM      2  C   UNL     1      45.496  80.570  39.699  0.00  0.00    +0.143 A 
ATOM      3  C   UNL     1      44.523  80.013  38.855  0.00  0.00    +0.038 A 
ATOM      4  C   UNL     1      43.986  78.784  39.118  0.00  0.00    +0.021 A 
ATOM      5  C   UNL     1      44.398  78.080  40.223  0.00  0.00    +0.106 A 
ATOM      6  C   UNL     1      45.355  78.635  41.045  0.00  0.00    +0.026 A 
ENDROOT
BRANCH   5   7
ATOM      7  S   UNL     1      43.764  76.504  40.629  0.00  0.00    +0.010 S 
ATOM      8  O   UNL     1      42.548  76.241  39.771  0.00  0.00    -0.169 OA
ATOM      9  O   UNL     1      43.357  76.415  42.057  0.00  0.00    -0.169 OA
ATOM     10  C   UNL     1      44.990  75.274  40.211  0.00  0.00    +0.182 C 
ENDBRANCH   5   7
BRANCH   1  12
ATOM     11  N   UNL     1      47.695  81.543  41.653  0.00  0.00    -0.200 NA
ATOM     12  C   UNL     1      46.966  80.381  41.707  0.00  0.00    +0.268 C 
ATOM     13  O   UNL     1      47.235  79.592  42.712  0.00  0.00    -0.268 OA
BRANCH  11  14
ATOM     14  C   UNL     1      48.684  81.942  42.676  0.00  0.00    +0.133 C 
BRANCH  14  15
ATOM     15  C   UNL     1      49.447  83.159  42.245  0.00  0.00    +0.096 C 
BRANCH  15  16
ATOM     16  N   UNL     1      50.352  83.548  43.295  0.00  0.00    -0.271 NA
BRANCH  16  18
ATOM     17  C   UNL     1      52.104  83.265  41.675  0.00  0.00    +0.019 C 
ATOM     18  C   UNL     1      51.688  82.982  43.112  0.00  0.00    +0.072 C 
ENDBRANCH  16  18
BRANCH  16  19
ATOM     19  C   UNL     1      50.460  84.995  43.445  0.00  0.00    +0.072 C 
ATOM     20  C   UNL     1      49.133  85.691  43.237  0.00  0.00    +0.019 C 
ENDBRANCH  16  19
ENDBRANCH  15  16
ENDBRANCH  14  15
ENDBRANCH  11  14
ENDBRANCH   1  12
BRANCH   2  21
ATOM     21  O   UNL     1      46.022  81.787  39.433  0.00  0.00    -0.471 OA
ATOM     22  C   UNL     1      45.867  82.522  38.271  0.00  0.00    +0.252 C 
ENDBRANCH   2  21
TORSDOF 8
