REMARK  Name = Tiaprofenic_acid
REMARK  4 active torsions:
REMARK  status: ('A' for Active; 'I' for Inactive)
REMARK    1  A    between atoms: C_2  and  C_3
REMARK    2  A    between atoms: C_2  and  C_16
REMARK    3  A    between atoms: C_6  and  C_8
REMARK    4  A    between atoms: C_8  and  C_10
REMARK                            x       y       z     vdW  Elec       q    Type
REMARK                         _______ _______ _______ _____ _____    ______ ____
ROOT
ATOM      1  C   UNL     1      46.109  80.171  39.975  0.00  0.00    +0.018 A 
ATOM      2  C   UNL     1      46.251  81.502  39.698  0.00  0.00    +0.003 A 
ATOM      3  C   UNL     1      47.203  82.174  40.377  0.00  0.00    +0.010 A 
ATOM      4  C   UNL     1      47.942  81.469  41.283  0.00  0.00    +0.068 A 
ATOM      5  S   UNL     1      47.294  79.894  41.165  0.00  0.00    -0.088 S 
ENDROOT
BRANCH   1   7
ATOM      6  C   UNL     1      44.382  78.500  40.460  0.00  0.00    +0.017 C 
ATOM      7  C   UNL     1      45.118  79.220  39.352  0.00  0.00    +0.132 C 
BRANCH   7   8
ATOM      8  C   UNL     1      44.182  80.017  38.535  0.00  0.00    +0.369 C 
ATOM      9  O   UNL     1      43.002  79.604  38.300  0.00  0.00    -0.245 OA
ATOM     10  O   UNL     1      44.516  81.242  37.979  0.00  0.00    -0.245 OA
ENDBRANCH   7   8
ENDBRANCH   1   7
BRANCH   4  11
ATOM     11  C   UNL     1      49.048  81.972  42.126  0.00  0.00    +0.201 C 
ATOM     12  O   UNL     1      50.013  81.202  42.313  0.00  0.00    -0.286 OA
BRANCH  11  13
ATOM     13  C   UNL     1      49.045  83.278  42.720  0.00  0.00    +0.039 A 
ATOM     14  C   UNL     1      47.887  83.952  42.955  0.00  0.00    +0.003 A 
ATOM     15  C   UNL     1      47.896  85.222  43.555  0.00  0.00    +0.000 A 
ATOM     16  C   UNL     1      49.103  85.790  43.910  0.00  0.00    +0.000 A 
ATOM     17  C   UNL     1      50.280  85.120  43.679  0.00  0.00    +0.000 A 
ATOM     18  C   UNL     1      50.240  83.885  43.094  0.00  0.00    +0.003 A 
ENDBRANCH  11  13
ENDBRANCH   4  11
TORSDOF 4
