REMARK  Name = Tiazofurin
REMARK  3 active torsions:
REMARK  status: ('A' for Active; 'I' for Inactive)
REMARK    1  A    between atoms: C_2  and  C_15
REMARK    2  A    between atoms: C_4  and  C_6
REMARK    3  A    between atoms: C_9  and  C_11
REMARK                            x       y       z     vdW  Elec       q    Type
REMARK                         _______ _______ _______ _____ _____    ______ ____
ROOT
ATOM      1  C   UNL     1      45.492  77.428  41.639  0.00  0.00    +0.194 C 
ATOM      2  C   UNL     1      45.480  76.008  41.057  0.00  0.00    +0.218 C 
ATOM      3  C   UNL     1      45.504  75.230  42.380  0.00  0.00    +0.214 C 
ATOM      4  C   UNL     1      44.632  76.110  43.230  0.00  0.00    +0.181 C 
ATOM      5  O   UNL     1      44.490  77.320  42.596  0.00  0.00    -0.344 OA
ATOM      6  O   UNL     1      45.050  73.948  42.237  0.00  0.00    -0.218 OA
ATOM      7  O   UNL     1      44.262  75.784  40.468  0.00  0.00    -0.217 OA
ENDROOT
BRANCH   1  11
ATOM      8  C   UNL     1      43.967  79.731  38.653  0.00  0.00    +0.060 A 
ATOM      9  C   UNL     1      45.029  80.280  39.339  0.00  0.00    +0.144 A 
ATOM     10  N   UNL     1      45.537  79.567  40.299  0.00  0.00    -0.235 NA
ATOM     11  C   UNL     1      45.042  78.382  40.580  0.00  0.00    +0.118 A 
ATOM     12  S   UNL     1      43.783  78.227  39.445  0.00  0.00    -0.068 S 
BRANCH   9  13
ATOM     13  C   UNL     1      45.535  81.612  38.974  0.00  0.00    +0.302 C 
ATOM     14  O   UNL     1      44.949  82.254  38.078  0.00  0.00    -0.265 OA
ATOM     15  N   UNL     1      46.657  82.180  39.604  0.00  0.00    -0.082 NA
ENDBRANCH   9  13
ENDBRANCH   1  11
BRANCH   4  16
ATOM     16  C   UNL     1      45.255  76.220  44.606  0.00  0.00    +0.214 C 
ATOM     17  O   UNL     1      46.633  76.339  44.450  0.00  0.00    -0.218 OA
ENDBRANCH   4  16
TORSDOF 3
