REMARK  Name = Tibolone
REMARK  1 active torsions:
REMARK  status: ('A' for Active; 'I' for Inactive)
REMARK    1  A    between atoms: C_16  and  C_21
REMARK                            x       y       z     vdW  Elec       q    Type
REMARK                         _______ _______ _______ _____ _____    ______ ____
ROOT
ATOM      1  C   UNL     1      47.183  79.401  43.546  0.00  0.00    +0.000 C 
ATOM      2  C   UNL     1      46.833  79.884  42.196  0.00  0.00    +0.004 C 
ATOM      3  C   UNL     1      46.141  78.682  41.515  0.00  0.00    +0.022 C 
ATOM      4  C   UNL     1      45.391  79.260  40.370  0.00  0.00    -0.045 C 
ATOM      5  C   UNL     1      45.888  80.299  39.761  0.00  0.00    -0.052 C 
ATOM      6  C   UNL     1      45.111  80.865  38.608  0.00  0.00    +0.029 C 
ATOM      7  C   UNL     1      44.449  79.775  37.800  0.00  0.00    +0.069 C 
ATOM      8  C   UNL     1      43.550  79.034  38.734  0.00  0.00    +0.155 C 
ATOM      9  O   UNL     1      42.382  78.789  38.485  0.00  0.00    -0.296 OA
ATOM     10  C   UNL     1      44.110  78.585  40.012  0.00  0.00    +0.086 C 
ATOM     11  C   UNL     1      47.149  80.993  40.086  0.00  0.00    +0.018 C 
ATOM     12  C   UNL     1      47.859  80.330  41.283  0.00  0.00    +0.004 C 
ATOM     13  C   UNL     1      48.948  81.212  41.666  0.00  0.00    +0.004 C 
ATOM     14  C   UNL     1      49.927  80.782  42.689  0.00  0.00    +0.004 C 
ATOM     15  C   UNL     1      50.749  82.060  42.915  0.00  0.00    +0.043 C 
ATOM     16  C   UNL     1      50.055  83.174  42.212  0.00  0.00    +0.180 C 
ATOM     17  C   UNL     1      48.632  82.639  41.989  0.00  0.00    +0.037 C 
ATOM     18  C   UNL     1      47.989  83.252  40.793  0.00  0.00    +0.004 C 
ATOM     19  C   UNL     1      46.805  82.429  40.399  0.00  0.00    +0.004 C 
ATOM     20  C   UNL     1      47.880  82.878  43.241  0.00  0.00    +0.003 C 
ATOM     21  O   UNL     1      50.585  83.375  40.930  0.00  0.00    -0.212 OA
ENDROOT
BRANCH  16  22
ATOM     22  C   UNL     1      50.045  84.379  43.005  0.00  0.00    -0.049 C 
ATOM     23  C   UNL     1      50.024  85.385  43.650  0.00  0.00    -0.012 C 
ENDBRANCH  16  22
TORSDOF 1
