REMARK  Name = Ticarcillin
REMARK  5 active torsions:
REMARK  status: ('A' for Active; 'I' for Inactive)
REMARK    1  A    between atoms: CA_3  and  C_22
REMARK    2  A    between atoms: CA_7  and  N_10
REMARK    3  A    between atoms: C_11  and  C_13
REMARK    4  A    between atoms: C_13  and  C_14
REMARK    5  A    between atoms: C_13  and  C_19
REMARK                            x       y       z     vdW  Elec       q    Type
REMARK                         _______ _______ _______ _____ _____    ______ ____
ROOT
ATOM      1  C   UNL     1      50.435  83.823  44.542  0.00  0.00    +0.013 C 
ATOM      2  C   UNL     1      49.784  83.873  43.202  0.00  0.00    +0.068 C 
ATOM      3  CA  UNL     1      50.499  83.084  42.142  0.00  0.00    +0.189 C 
ATOM      4  N   UNL     1      49.856  81.823  41.993  0.00  0.00    -0.259 N 
ATOM      5  C   UNL     1      48.402  81.988  41.836  0.00  0.00    +0.153 C 
ATOM      6  S   UNL     1      48.111  83.114  43.238  0.00  0.00    -0.118 S 
ATOM      7  CA  UNL     1      48.168  80.531  42.138  0.00  0.00    +0.200 C 
ATOM      8  C   UNL     1      49.629  80.441  41.886  0.00  0.00    +0.249 C 
ATOM      9  O   UNL     1      50.381  79.461  41.659  0.00  0.00    -0.273 OA
ATOM     10  C   UNL     1      49.600  85.283  42.679  0.00  0.00    +0.013 C 
ENDROOT
BRANCH   7  11
ATOM     11  N   UNL     1      47.331  79.938  41.122  0.00  0.00    -0.194 NA
ATOM     12  C   UNL     1      46.126  80.504  40.661  0.00  0.00    +0.257 C 
ATOM     13  O   UNL     1      45.480  81.267  41.407  0.00  0.00    -0.272 OA
BRANCH  12  14
ATOM     14  C   UNL     1      45.608  80.212  39.309  0.00  0.00    +0.204 C 
BRANCH  14  15
ATOM     15  C   UNL     1      44.352  79.363  39.468  0.00  0.00    +0.004 A 
ATOM     16  C   UNL     1      43.364  79.456  38.522  0.00  0.00    +0.032 A 
ATOM     17  S   UNL     1      42.185  78.363  39.088  0.00  0.00    -0.086 S 
ATOM     18  C   UNL     1      42.965  77.820  40.500  0.00  0.00    +0.035 A 
ATOM     19  C   UNL     1      44.141  78.515  40.489  0.00  0.00    +0.004 A 
ENDBRANCH  14  15
BRANCH  14  20
ATOM     20  C   UNL     1      45.267  81.460  38.591  0.00  0.00    +0.377 C 
ATOM     21  O   UNL     1      45.775  82.541  38.959  0.00  0.00    -0.245 OA
ATOM     22  O   UNL     1      44.395  81.417  37.529  0.00  0.00    -0.245 OA
ENDBRANCH  14  20
ENDBRANCH  12  14
ENDBRANCH   7  11
BRANCH   3  23
ATOM     23  C   UNL     1      51.903  82.912  42.590  0.00  0.00    +0.383 C 
ATOM     24  O   UNL     1      52.185  82.179  43.590  0.00  0.00    -0.244 OA
ATOM     25  OXT UNL     1      52.904  83.570  41.892  0.00  0.00    -0.244 OA
ENDBRANCH   3  23
TORSDOF 5
