REMARK  Name = Tigecycline
REMARK  7 active torsions:
REMARK  status: ('A' for Active; 'I' for Inactive)
REMARK    1  A    between atoms: C_2  and  N_5
REMARK    2  A    between atoms: N_5  and  C_6
REMARK    3  A    between atoms: C_6  and  C_7
REMARK    4  A    between atoms: N_9  and  C_10
REMARK    5  A    between atoms: C_12  and  N_40
REMARK    6  A    between atoms: C_18  and  N_37
REMARK    7  A    between atoms: C_21  and  C_34
REMARK                            x       y       z     vdW  Elec       q    Type
REMARK                         _______ _______ _______ _____ _____    ______ ____
ROOT
ATOM      1  C   UNL     1      42.860  77.980  38.601  0.00  0.00    +0.114 A 
ATOM      2  C   UNL     1      43.179  77.168  39.651  0.00  0.00    +0.034 A 
ATOM      3  C   UNL     1      44.035  77.522  40.686  0.00  0.00    +0.045 A 
ATOM      4  C   UNL     1      44.614  78.802  40.654  0.00  0.00    -0.002 A 
ATOM      5  C   UNL     1      45.567  79.149  41.700  0.00  0.00    +0.032 C 
ATOM      6  C   UNL     1      45.995  80.553  41.732  0.00  0.00    +0.033 C 
ATOM      7  C   UNL     1      47.504  80.710  41.994  0.00  0.00    +0.010 C 
ATOM      8  C   UNL     1      47.681  82.163  42.394  0.00  0.00    +0.065 C 
ATOM      9  C   UNL     1      48.965  82.447  43.097  0.00  0.00    +0.124 C 
ATOM     10  C   UNL     1      50.024  82.688  42.095  0.00  0.00    +0.195 C 
ATOM     11  O   UNL     1      51.166  83.151  42.381  0.00  0.00    -0.290 OA
ATOM     12  C   UNL     1      49.792  82.389  40.665  0.00  0.00    +0.130 C 
ATOM     13  C   UNL     1      48.563  82.531  40.172  0.00  0.00    +0.215 C 
ATOM     14  C   UNL     1      47.522  82.988  41.136  0.00  0.00    +0.237 C 
ATOM     15  C   UNL     1      46.209  82.750  40.515  0.00  0.00    +0.207 C 
ATOM     16  O   UNL     1      45.590  83.671  39.947  0.00  0.00    -0.289 OA
ATOM     17  C   UNL     1      45.637  81.374  40.582  0.00  0.00    +0.054 C 
ATOM     18  C   UNL     1      44.866  81.012  39.580  0.00  0.00    +0.197 C 
ATOM     19  C   UNL     1      44.323  79.651  39.625  0.00  0.00    +0.076 A 
ATOM     20  C   UNL     1      43.453  79.241  38.608  0.00  0.00    +0.214 A 
ATOM     21  O   UNL     1      43.180  80.131  37.575  0.00  0.00    -0.285 OA
ATOM     22  O   UNL     1      44.553  81.840  38.516  0.00  0.00    -0.287 OA
ATOM     23  O   UNL     1      47.731  84.340  41.413  0.00  0.00    -0.210 OA
ATOM     24  O   UNL     1      48.294  82.265  38.842  0.00  0.00    -0.288 OA
ENDROOT
BRANCH   1  27
ATOM     25  C   UNL     1      40.826  76.879  37.581  0.00  0.00    +0.263 C 
ATOM     26  O   UNL     1      40.585  76.212  38.636  0.00  0.00    -0.271 OA
ATOM     27  N   UNL     1      41.992  77.639  37.535  0.00  0.00    -0.175 NA
BRANCH  25  28
ATOM     28  C   UNL     1      39.879  76.823  36.441  0.00  0.00    +0.176 C 
BRANCH  28  29
ATOM     29  N   UNL     1      39.349  75.566  36.097  0.00  0.00    -0.211 NA
BRANCH  29  31
ATOM     30  C   UNL     1      37.032  75.100  35.249  0.00  0.00    +0.017 C 
ATOM     31  C   UNL     1      38.444  75.474  35.009  0.00  0.00    +0.060 C 
ATOM     32  C   UNL     1      38.491  76.826  34.277  0.00  0.00    +0.017 C 
ATOM     33  C   UNL     1      39.007  74.484  33.972  0.00  0.00    +0.017 C 
ENDBRANCH  29  31
ENDBRANCH  28  29
ENDBRANCH  25  28
ENDBRANCH   1  27
BRANCH  12  34
ATOM     34  C   UNL     1      50.877  81.954  39.822  0.00  0.00    +0.290 C 
ATOM     35  O   UNL     1      51.042  80.736  39.606  0.00  0.00    -0.266 OA
ATOM     36  N   UNL     1      51.761  82.885  39.234  0.00  0.00    -0.084 NA
ENDBRANCH  12  34
BRANCH   9  37
ATOM     37  N   UNL     1      49.390  81.360  43.960  0.00  0.00    -0.265 NA
ATOM     38  C   UNL     1      50.481  81.770  44.825  0.00  0.00    +0.090 C 
ATOM     39  C   UNL     1      49.932  80.302  43.102  0.00  0.00    +0.090 C 
ENDBRANCH   9  37
BRANCH   3  40
ATOM     40  N   UNL     1      44.276  76.595  41.732  0.00  0.00    -0.304 N 
ATOM     41  C   UNL     1      45.212  75.516  41.502  0.00  0.00    +0.112 C 
ATOM     42  C   UNL     1      43.600  76.716  43.018  0.00  0.00    +0.112 C 
ENDBRANCH   3  40
TORSDOF 7
