REMARK  Name = Tiludronic_acid
REMARK  4 active torsions:
REMARK  status: ('A' for Active; 'I' for Inactive)
REMARK    1  A    between atoms: C_6  and  S_7
REMARK    2  A    between atoms: S_7  and  C_8
REMARK    3  A    between atoms: C_8  and  P_9
REMARK    4  A    between atoms: C_8  and  P_13
REMARK                            x       y       z     vdW  Elec       q    Type
REMARK                         _______ _______ _______ _____ _____    ______ ____
ROOT
ATOM      1  C   UNL     1      45.632  80.466  40.421  0.00  0.00    +0.267 C 
ENDROOT
BRANCH   1   2
ATOM      2  P   UNL     1      45.207  81.210  38.823  0.00  0.00    +0.417 P 
ATOM      3  O   UNL     1      45.779  80.388  37.675  0.00  0.00    -0.252 OA
ATOM      4  O   UNL     1      43.532  81.271  38.580  0.00  0.00    -0.137 OA
ATOM      5  O   UNL     1      45.780  82.815  38.721  0.00  0.00    -0.137 OA
ENDBRANCH   1   2
BRANCH   1   6
ATOM      6  P   UNL     1      45.043  78.734  40.425  0.00  0.00    +0.417 P 
ATOM      7  O   UNL     1      45.616  77.969  39.233  0.00  0.00    -0.252 OA
ATOM      8  O   UNL     1      45.574  77.928  41.813  0.00  0.00    -0.137 OA
ATOM      9  O   UNL     1      43.366  78.661  40.284  0.00  0.00    -0.137 OA
ENDBRANCH   1   6
BRANCH   1  10
ATOM     10  S   UNL     1      47.406  80.445  40.594  0.00  0.00    -0.090 S 
BRANCH  10  16
ATOM     11  C   UNL     1      47.353  82.722  42.188  0.00  0.00    +0.007 A 
ATOM     12  C   UNL     1      47.970  83.681  42.982  0.00  0.00    +0.012 A 
ATOM     13  C   UNL     1      49.328  83.657  43.225  0.00  0.00    +0.058 A 
ATOM     14  C   UNL     1      50.051  82.638  42.645  0.00  0.00    +0.012 A 
ATOM     15  C   UNL     1      49.437  81.683  41.855  0.00  0.00    +0.007 A 
ATOM     16  C   UNL     1      48.072  81.710  41.613  0.00  0.00    +0.026 A 
ATOM     17 CL   UNL     1      50.127  84.856  44.221  0.00  0.00    -0.082 Cl
ENDBRANCH  10  16
ENDBRANCH   1  10
TORSDOF 4
