REMARK  Name = Timolol
REMARK  6 active torsions:
REMARK  status: ('A' for Active; 'I' for Inactive)
REMARK    1  A    between atoms: C_2  and  N_5
REMARK    2  A    between atoms: N_5  and  C_6
REMARK    3  A    between atoms: C_6  and  C_7
REMARK    4  A    between atoms: C_7  and  C_8
REMARK    5  A    between atoms: C_8  and  O_9
REMARK    6  A    between atoms: O_9  and  C_10
REMARK                            x       y       z     vdW  Elec       q    Type
REMARK                         _______ _______ _______ _____ _____    ______ ____
ROOT
ATOM      1  C   UNL     1      46.495  78.756  41.849  0.00  0.00    +0.266 A 
ATOM      2  N   UNL     1      46.383  77.737  42.702  0.00  0.00    -0.153 NA
ATOM      3  S   UNL     1      44.919  77.029  42.285  0.00  0.00    +0.121 S 
ATOM      4  N   UNL     1      44.486  78.056  41.030  0.00  0.00    -0.172 NA
ATOM      5  C   UNL     1      45.496  78.926  40.967  0.00  0.00    +0.195 A 
ATOM      6  N   UNL     1      45.448  79.980  39.966  0.00  0.00    -0.284 N 
ATOM      7  C   UNL     1      45.102  79.674  38.583  0.00  0.00    +0.124 C 
ATOM      8  C   UNL     1      44.254  80.829  38.093  0.00  0.00    +0.164 C 
ATOM      9  O   UNL     1      44.993  81.982  38.065  0.00  0.00    -0.350 OA
ATOM     10  C   UNL     1      46.026  82.056  38.963  0.00  0.00    +0.164 C 
ATOM     11  C   UNL     1      45.732  81.351  40.280  0.00  0.00    +0.124 C 
ENDROOT
BRANCH   1  12
ATOM     12  O   UNL     1      47.625  79.605  41.894  0.00  0.00    -0.455 OA
BRANCH  12  13
ATOM     13  C   UNL     1      48.020  80.317  43.016  0.00  0.00    +0.241 C 
BRANCH  13  14
ATOM     14  C   UNL     1      49.326  81.053  42.872  0.00  0.00    +0.213 C 
ATOM     15  O   UNL     1      50.196  80.729  43.932  0.00  0.00    -0.218 OA
BRANCH  14  16
ATOM     16  C   UNL     1      49.148  82.543  42.848  0.00  0.00    +0.125 C 
BRANCH  16  17
ATOM     17  N   UNL     1      50.231  83.240  43.511  0.00  0.00    -0.218 NA
BRANCH  17  19
ATOM     18  C   UNL     1      50.929  85.335  44.461  0.00  0.00    +0.017 C 
ATOM     19  C   UNL     1      50.161  84.658  43.355  0.00  0.00    +0.060 C 
ATOM     20  C   UNL     1      50.660  85.153  42.034  0.00  0.00    +0.017 C 
ATOM     21  C   UNL     1      48.709  85.135  43.487  0.00  0.00    +0.017 C 
ENDBRANCH  17  19
ENDBRANCH  16  17
ENDBRANCH  14  16
ENDBRANCH  13  14
ENDBRANCH  12  13
ENDBRANCH   1  12
TORSDOF 6
