REMARK  Name = Tindamax
REMARK  5 active torsions:
REMARK  status: ('A' for Active; 'I' for Inactive)
REMARK    1  A    between atoms: C_2  and  S_3
REMARK    2  A    between atoms: S_3  and  C_6
REMARK    3  A    between atoms: C_6  and  C_7
REMARK    4  A    between atoms: C_7  and  N_8
REMARK    5  A    between atoms: C_12  and  N_13
REMARK                            x       y       z     vdW  Elec       q    Type
REMARK                         _______ _______ _______ _____ _____    ______ ____
ROOT
ATOM      1  N   UNL     1      46.683  81.241  39.788  0.00  0.00    -0.295 N 
ATOM      2  C   UNL     1      45.542  80.885  39.170  0.00  0.00    +0.122 A 
ATOM      3  N   UNL     1      45.296  81.678  38.114  0.00  0.00    -0.228 NA
ATOM      4  C   UNL     1      46.285  82.555  38.048  0.00  0.00    +0.142 A 
ATOM      5  C   UNL     1      47.164  82.292  39.094  0.00  0.00    +0.226 A 
ATOM      6  C   UNL     1      44.652  79.772  39.572  0.00  0.00    +0.072 C 
ENDROOT
BRANCH   5   7
ATOM      7  N   UNL     1      48.337  83.039  39.327  0.00  0.00    +0.076 N 
ATOM      8  O   UNL     1      48.754  83.897  38.525  0.00  0.00    -0.125 OA
ATOM      9  O   UNL     1      49.071  82.843  40.462  0.00  0.00    -0.125 OA
ENDBRANCH   5   7
BRANCH   1  10
ATOM     10  C   UNL     1      47.285  80.650  40.941  0.00  0.00    +0.134 C 
BRANCH  10  11
ATOM     11  C   UNL     1      47.063  81.479  42.185  0.00  0.00    +0.175 C 
BRANCH  11  12
ATOM     12  S   UNL     1      48.573  81.928  42.963  0.00  0.00    -0.008 S 
ATOM     13  O   UNL     1      49.765  81.483  42.157  0.00  0.00    -0.173 OA
ATOM     14  O   UNL     1      48.665  81.246  44.293  0.00  0.00    -0.173 OA
BRANCH  12  16
ATOM     15  C   UNL     1      47.359  84.226  43.621  0.00  0.00    +0.027 C 
ATOM     16  C   UNL     1      48.655  83.685  43.106  0.00  0.00    +0.151 C 
ENDBRANCH  12  16
ENDBRANCH  11  12
ENDBRANCH  10  11
ENDBRANCH   1  10
TORSDOF 5
