REMARK  Name = Tiotropium
REMARK  5 active torsions:
REMARK  status: ('A' for Active; 'I' for Inactive)
REMARK    1  A    between atoms: C_5  and  O_11
REMARK    2  A    between atoms: O_11  and  C_12
REMARK    3  A    between atoms: C_12  and  C_14
REMARK    4  A    between atoms: C_14  and  C_15
REMARK    5  A    between atoms: C_14  and  C_20
REMARK                            x       y       z     vdW  Elec       q    Type
REMARK                         _______ _______ _______ _____ _____    ______ ____
ROOT
ATOM      1  C   UNL     1      47.348  81.542  41.189  0.00  0.00    +0.354 C 
ATOM      2  O   UNL     1      47.239  82.263  40.167  0.00  0.00    -0.247 OA
ENDROOT
BRANCH   1   3
ATOM      3  C   UNL     1      48.311  81.912  42.221  0.00  0.00    +0.263 C 
ATOM      4  O   UNL     1      48.260  80.988  43.255  0.00  0.00    -0.204 OA
BRANCH   3   5
ATOM      5  C   UNL     1      48.046  83.276  42.806  0.00  0.00    +0.049 A 
ATOM      6  C   UNL     1      46.910  84.017  42.701  0.00  0.00    +0.006 A 
ATOM      7  C   UNL     1      46.890  85.221  43.306  0.00  0.00    +0.007 A 
ATOM      8  C   UNL     1      48.023  85.596  43.979  0.00  0.00    +0.035 A 
ATOM      9  S   UNL     1      49.065  84.265  43.744  0.00  0.00    -0.088 S 
ENDBRANCH   3   5
BRANCH   3  10
ATOM     10  C   UNL     1      49.712  81.937  41.711  0.00  0.00    +0.049 A 
ATOM     11  C   UNL     1      50.080  82.494  40.519  0.00  0.00    +0.006 A 
ATOM     12  C   UNL     1      51.397  82.435  40.200  0.00  0.00    +0.007 A 
ATOM     13  C   UNL     1      52.231  81.827  41.094  0.00  0.00    +0.035 A 
ATOM     14  S   UNL     1      51.177  81.357  42.345  0.00  0.00    -0.088 S 
ENDBRANCH   3  10
ENDBRANCH   1   3
BRANCH   1  15
ATOM     15  O   UNL     1      46.521  80.427  41.248  0.00  0.00    -0.450 OA
BRANCH  15  20
ATOM     16  C   UNL     1      44.165  76.518  39.331  0.00  0.00    -0.095 C 
ATOM     17  N   UNL     1      44.764  77.734  39.891  0.00  0.00    +0.393 N 
ATOM     18  C   UNL     1      43.759  78.337  40.733  0.00  0.00    -0.020 C 
ATOM     19  C   UNL     1      44.275  79.537  41.438  0.00  0.00    +0.026 C 
ATOM     20  C   UNL     1      45.235  80.376  40.653  0.00  0.00    +0.165 C 
ATOM     21  C   UNL     1      45.385  80.023  39.227  0.00  0.00    +0.026 C 
ATOM     22  C   UNL     1      44.863  78.691  38.819  0.00  0.00    -0.020 C 
ATOM     23  C   UNL     1      43.385  78.877  38.453  0.00  0.00    +0.122 C 
ATOM     24  C   UNL     1      42.684  78.696  39.706  0.00  0.00    +0.122 C 
ATOM     25  O   UNL     1      42.732  79.939  39.113  0.00  0.00    -0.358 OA
ATOM     26  C   UNL     1      45.998  77.462  40.555  0.00  0.00    -0.095 C 
ENDBRANCH  15  20
ENDBRANCH   1  15
TORSDOF 5
