REMARK  Name = Tipranavir
REMARK  12 active torsions:
REMARK  status: ('A' for Active; 'I' for Inactive)
REMARK    1  A    between atoms: C_2  and  C_3
REMARK    2  A    between atoms: C_3  and  C_4
REMARK    3  A    between atoms: C_4  and  C_35
REMARK    4  A    between atoms: C_7  and  C_11
REMARK    5  A    between atoms: C_11  and  C_12
REMARK    6  A    between atoms: C_11  and  C_14
REMARK    7  A    between atoms: C_16  and  N_20
REMARK    8  A    between atoms: N_20  and  S_21
REMARK    9  A    between atoms: S_21  and  C_24
REMARK   10  A    between atoms: C_27  and  C_30
REMARK   11  A    between atoms: C_35  and  C_36
REMARK   12  A    between atoms: C_36  and  C_37
REMARK                            x       y       z     vdW  Elec       q    Type
REMARK                         _______ _______ _______ _____ _____    ______ ____
ROOT
ATOM      1  C   UNL     1      47.558  81.307  39.974  0.00  0.00    +0.054 C 
ENDROOT
BRANCH   1   5
ATOM      2  C   UNL     1      44.122  78.689  40.052  0.00  0.00    +0.144 C 
ATOM      3  C   UNL     1      45.493  78.080  39.726  0.00  0.00    +0.109 C 
ATOM      4  C   UNL     1      46.587  79.026  39.911  0.00  0.00    +0.179 C 
ATOM      5  C   UNL     1      46.498  80.335  39.807  0.00  0.00    +0.092 C 
ATOM      6  C   UNL     1      45.134  80.808  39.468  0.00  0.00    +0.340 C 
ATOM      7  O   UNL     1      44.944  82.058  39.348  0.00  0.00    -0.245 OA
ATOM      8  O   UNL     1      44.095  79.918  39.288  0.00  0.00    -0.452 OA
ATOM      9  O   UNL     1      47.842  78.510  40.225  0.00  0.00    -0.291 OA
BRANCH   2  10
ATOM     10  C   UNL     1      43.968  79.074  41.466  0.00  0.00    +0.041 C 
BRANCH  10  12
ATOM     11  C   UNL     1      43.475  77.747  43.590  0.00  0.00    +0.000 C 
ATOM     12  C   UNL     1      44.419  78.147  42.526  0.00  0.00    +0.004 C 
ENDBRANCH  10  12
ENDBRANCH   2  10
BRANCH   2  13
ATOM     13  C   UNL     1      43.081  77.835  39.435  0.00  0.00    +0.045 C 
BRANCH  13  14
ATOM     14  C   UNL     1      41.975  78.448  38.716  0.00  0.00    +0.030 C 
BRANCH  14  15
ATOM     15  C   UNL     1      41.035  77.692  37.915  0.00  0.00    -0.022 A 
ATOM     16  C   UNL     1      39.928  78.296  37.302  0.00  0.00    -0.004 A 
ATOM     17  C   UNL     1      39.009  77.550  36.619  0.00  0.00    -0.000 A 
ATOM     18  C   UNL     1      39.149  76.174  36.514  0.00  0.00    -0.000 A 
ATOM     19  C   UNL     1      40.225  75.535  37.100  0.00  0.00    -0.000 A 
ATOM     20  C   UNL     1      41.134  76.304  37.782  0.00  0.00    -0.004 A 
ENDBRANCH  14  15
ENDBRANCH  13  14
ENDBRANCH   2  13
ENDBRANCH   1   5
BRANCH   1  21
ATOM     21  C   UNL     1      47.715  81.776  41.396  0.00  0.00    -0.017 A 
ATOM     22  C   UNL     1      48.697  81.245  42.206  0.00  0.00    +0.014 A 
ATOM     23  C   UNL     1      48.866  81.661  43.536  0.00  0.00    +0.091 A 
ATOM     24  C   UNL     1      48.036  82.626  44.065  0.00  0.00    +0.018 A 
ATOM     25  C   UNL     1      47.041  83.171  43.261  0.00  0.00    +0.001 A 
ATOM     26  C   UNL     1      46.902  82.740  41.958  0.00  0.00    -0.004 A 
BRANCH  23  27
ATOM     27  N   UNL     1      49.892  81.098  44.330  0.00  0.00    -0.095 NA
BRANCH  27  28
ATOM     28  S   UNL     1      51.529  81.631  44.261  0.00  0.00    +0.109 S 
ATOM     29  O   UNL     1      52.127  81.674  45.638  0.00  0.00    -0.147 OA
ATOM     30  O   UNL     1      52.302  80.543  43.523  0.00  0.00    -0.147 OA
BRANCH  28  31
ATOM     31  C   UNL     1      51.748  83.096  43.374  0.00  0.00    +0.208 A 
ATOM     32  N   UNL     1      52.034  83.022  42.069  0.00  0.00    -0.224 NA
ATOM     33  C   UNL     1      52.217  84.122  41.310  0.00  0.00    +0.104 A 
ATOM     34  C   UNL     1      52.111  85.386  41.876  0.00  0.00    +0.091 A 
ATOM     35  C   UNL     1      51.816  85.476  43.217  0.00  0.00    +0.008 A 
ATOM     36  C   UNL     1      51.638  84.337  43.952  0.00  0.00    +0.040 A 
BRANCH  34  37
ATOM     37  C   UNL     1      52.320  86.575  41.003  0.00  0.00    +0.420 C 
ATOM     38  F   UNL     1      51.298  87.484  41.162  0.00  0.00    -0.166 F 
ATOM     39  F   UNL     1      53.499  87.177  41.395  0.00  0.00    -0.166 F 
ATOM     40  F   UNL     1      52.418  86.198  39.668  0.00  0.00    -0.166 F 
ENDBRANCH  34  37
ENDBRANCH  28  31
ENDBRANCH  27  28
ENDBRANCH  23  27
ENDBRANCH   1  21
BRANCH   1  41
ATOM     41  C   UNL     1      47.679  82.400  38.972  0.00  0.00    +0.009 C 
ATOM     42  C   UNL     1      48.269  81.885  37.703  0.00  0.00    +0.001 C 
ENDBRANCH   1  41
TORSDOF 12
