REMARK  Name = Tirbanibulin
REMARK  9 active torsions:
REMARK  status: ('A' for Active; 'I' for Inactive)
REMARK    1  A    between atoms: N_6  and  C_7
REMARK    2  A    between atoms: C_7  and  C_8
REMARK    3  A    between atoms: C_8  and  O_9
REMARK    4  A    between atoms: O_9  and  C_10
REMARK    5  A    between atoms: C_13  and  C_16
REMARK    6  A    between atoms: C_19  and  C_22
REMARK    7  A    between atoms: C_22  and  C_23
REMARK    8  A    between atoms: N_25  and  C_26
REMARK    9  A    between atoms: C_26  and  C_27
REMARK                            x       y       z     vdW  Elec       q    Type
REMARK                         _______ _______ _______ _____ _____    ______ ____
ROOT
ATOM      1  C   UNL     1      44.148  79.804  39.076  0.00  0.00    +0.019 A 
ATOM      2  C   UNL     1      44.488  80.702  38.086  0.00  0.00    +0.098 A 
ATOM      3  N   UNL     1      45.461  81.644  38.260  0.00  0.00    -0.248 NA
ATOM      4  C   UNL     1      46.133  81.737  39.409  0.00  0.00    +0.068 A 
ATOM      5  C   UNL     1      45.843  80.876  40.431  0.00  0.00    +0.015 A 
ATOM      6  C   UNL     1      44.846  79.905  40.263  0.00  0.00    +0.003 A 
ENDROOT
BRANCH   1  10
ATOM      7  C   UNL     1      41.092  76.843  38.466  0.00  0.00    +0.139 A 
ATOM      8  C   UNL     1      41.053  78.044  37.801  0.00  0.00    +0.037 A 
ATOM      9  C   UNL     1      42.047  79.011  37.997  0.00  0.00    +0.003 A 
ATOM     10  C   UNL     1      43.103  78.813  38.852  0.00  0.00    +0.002 A 
ATOM     11  C   UNL     1      43.141  77.609  39.517  0.00  0.00    +0.003 A 
ATOM     12  C   UNL     1      42.180  76.646  39.344  0.00  0.00    +0.037 A 
BRANCH   7  13
ATOM     13  O   UNL     1      40.174  75.835  38.353  0.00  0.00    -0.474 OA
BRANCH  13  14
ATOM     14  C   UNL     1      40.148  74.760  37.483  0.00  0.00    +0.223 C 
BRANCH  14  15
ATOM     15  C   UNL     1      38.848  74.493  36.820  0.00  0.00    +0.120 C 
BRANCH  15  21
ATOM     16  C   UNL     1      37.562  72.442  36.739  0.00  0.00    +0.105 C 
ATOM     17  C   UNL     1      37.602  71.074  36.043  0.00  0.00    +0.159 C 
ATOM     18  O   UNL     1      37.604  71.184  34.675  0.00  0.00    -0.351 OA
ATOM     19  C   UNL     1      38.691  71.884  34.206  0.00  0.00    +0.159 C 
ATOM     20  C   UNL     1      38.699  73.246  34.864  0.00  0.00    +0.105 C 
ATOM     21  N   UNL     1      38.725  73.141  36.311  0.00  0.00    -0.265 NA
ENDBRANCH  15  21
ENDBRANCH  14  15
ENDBRANCH  13  14
ENDBRANCH   7  13
ENDBRANCH   1  10
BRANCH   4  22
ATOM     22  C   UNL     1      47.172  82.762  39.571  0.00  0.00    +0.132 C 
BRANCH  22  23
ATOM     23  C   UNL     1      47.598  82.849  40.984  0.00  0.00    +0.248 C 
ATOM     24  O   UNL     1      47.484  81.838  41.712  0.00  0.00    -0.273 OA
ATOM     25  N   UNL     1      48.127  84.038  41.528  0.00  0.00    -0.200 NA
BRANCH  25  26
ATOM     26  C   UNL     1      48.666  84.188  42.857  0.00  0.00    +0.141 C 
BRANCH  26  27
ATOM     27  C   UNL     1      50.140  84.259  42.800  0.00  0.00    -0.001 A 
ATOM     28  C   UNL     1      50.858  83.912  41.680  0.00  0.00    -0.003 A 
ATOM     29  C   UNL     1      52.248  84.026  41.739  0.00  0.00    -0.000 A 
ATOM     30  C   UNL     1      52.886  84.469  42.873  0.00  0.00    -0.000 A 
ATOM     31  C   UNL     1      52.161  84.816  43.995  0.00  0.00    -0.000 A 
ATOM     32  C   UNL     1      50.788  84.706  43.945  0.00  0.00    -0.003 A 
ENDBRANCH  26  27
ENDBRANCH  25  26
ENDBRANCH  22  23
ENDBRANCH   4  22
TORSDOF 9
