REMARK  Name = Tirilazad_mesylate
REMARK  4 active torsions:
REMARK  status: ('A' for Active; 'I' for Inactive)
REMARK    1  A    between atoms: C_19  and  C_20
REMARK    2  A    between atoms: C_20  and  C_22
REMARK    3  A    between atoms: C_22  and  N_23
REMARK    4  A    between atoms: C_33  and  N_35
REMARK                            x       y       z     vdW  Elec       q    Type
REMARK                         _______ _______ _______ _____ _____    ______ ____
ROOT
ATOM      1  C   UNL     1      44.609  80.692  40.056  0.00  0.00    +0.166 C 
ATOM      2  O   UNL     1      44.240  80.919  38.917  0.00  0.00    -0.295 OA
ENDROOT
BRANCH   1  21
ATOM      3  C   UNL     1      46.284  81.972  38.180  0.00  0.00    +0.000 C 
ATOM      4  C   UNL     1      46.083  82.538  39.548  0.00  0.00    +0.007 C 
ATOM      5  C   UNL     1      47.437  82.984  40.068  0.00  0.00    +0.001 C 
ATOM      6  C   UNL     1      48.008  81.648  40.550  0.00  0.00    +0.004 C 
ATOM      7  C   UNL     1      49.199  81.899  41.369  0.00  0.00    +0.019 C 
ATOM      8  C   UNL     1      50.435  81.149  40.883  0.00  0.00    +0.008 C 
ATOM      9  C   UNL     1      51.637  81.965  41.413  0.00  0.00    +0.023 C 
ATOM     10  C   UNL     1      51.192  82.733  42.612  0.00  0.00    -0.034 C 
ATOM     11  C   UNL     1      51.584  83.968  42.752  0.00  0.00    +0.034 C 
ATOM     12  C   UNL     1      51.165  84.753  43.910  0.00  0.00    +0.195 C 
ATOM     13  O   UNL     1      51.526  85.946  44.074  0.00  0.00    -0.287 OA
ATOM     14  C   UNL     1      50.310  84.143  44.898  0.00  0.00    +0.038 C 
ATOM     15  C   UNL     1      49.931  82.886  44.728  0.00  0.00    -0.016 C 
ATOM     16  C   UNL     1      50.307  82.040  43.613  0.00  0.00    +0.049 C 
ATOM     17  C   UNL     1      49.071  81.693  42.813  0.00  0.00    -0.042 C 
ATOM     18  C   UNL     1      47.992  81.248  43.367  0.00  0.00    -0.034 C 
ATOM     19  C   UNL     1      46.767  80.898  42.629  0.00  0.00    +0.026 C 
ATOM     20  C   UNL     1      46.874  80.894  41.132  0.00  0.00    +0.011 C 
ATOM     21  C   UNL     1      45.650  81.548  40.590  0.00  0.00    +0.059 C 
ATOM     22  C   UNL     1      47.043  79.444  40.660  0.00  0.00    +0.001 C 
ATOM     23  C   UNL     1      51.007  80.773  44.057  0.00  0.00    +0.013 C 
ENDBRANCH   1  21
BRANCH   1  24
ATOM     24  C   UNL     1      43.941  79.573  40.741  0.00  0.00    +0.138 C 
BRANCH  24  25
ATOM     25  N   UNL     1      43.053  78.788  39.942  0.00  0.00    -0.263 NA
ATOM     26  C   UNL     1      42.382  77.767  40.742  0.00  0.00    +0.094 C 
ATOM     27  C   UNL     1      42.211  76.511  39.964  0.00  0.00    +0.110 C 
ATOM     28  N   UNL     1      41.863  76.701  38.572  0.00  0.00    -0.290 N 
ATOM     29  C   UNL     1      42.649  77.663  37.827  0.00  0.00    +0.110 C 
ATOM     30  C   UNL     1      43.697  78.182  38.792  0.00  0.00    +0.094 C 
ATOM     31  C   UNL     1      40.803  75.973  37.951  0.00  0.00    +0.137 A 
ATOM     32  N   UNL     1      40.232  74.944  38.593  0.00  0.00    -0.199 NA
ATOM     33  C   UNL     1      39.215  74.245  38.018  0.00  0.00    +0.222 A 
ATOM     34  N   UNL     1      38.763  74.570  36.799  0.00  0.00    -0.199 NA
ATOM     35  C   UNL     1      39.295  75.602  36.094  0.00  0.00    +0.137 A 
ATOM     36  C   UNL     1      40.332  76.292  36.713  0.00  0.00    +0.069 A 
ATOM     37  N   UNL     1      38.626  73.150  38.706  0.00  0.00    -0.278 N 
ATOM     38  C   UNL     1      38.872  72.720  40.058  0.00  0.00    +0.094 C 
ATOM     39  C   UNL     1      38.896  71.213  39.931  0.00  0.00    +0.023 C 
ATOM     40  C   UNL     1      37.783  70.956  38.937  0.00  0.00    +0.023 C 
ATOM     41  C   UNL     1      37.638  72.247  38.156  0.00  0.00    +0.094 C 
BRANCH  35  42
ATOM     42  N   UNL     1      38.816  75.948  34.812  0.00  0.00    -0.293 N 
ATOM     43  C   UNL     1      38.991  77.209  34.154  0.00  0.00    +0.092 C 
ATOM     44  C   UNL     1      37.576  77.433  33.600  0.00  0.00    +0.023 C 
ATOM     45  C   UNL     1      37.042  76.043  33.343  0.00  0.00    +0.023 C 
ATOM     46  C   UNL     1      38.064  75.091  33.939  0.00  0.00    +0.092 C 
ENDBRANCH  35  42
ENDBRANCH  24  25
ENDBRANCH   1  24
TORSDOF 4
REMARK  Name = Tirilazad_mesylate
REMARK  4 active torsions:
REMARK  status: ('A' for Active; 'I' for Inactive)
REMARK    1  A    between atoms: C_19  and  C_20
REMARK    2  A    between atoms: C_20  and  C_22
REMARK    3  A    between atoms: C_22  and  N_23
REMARK    4  A    between atoms: C_33  and  N_35
REMARK                            x       y       z     vdW  Elec       q    Type
REMARK                         _______ _______ _______ _____ _____    ______ ____
ROOT
ATOM      1  C   UNL     1      45.101  79.161  40.304  0.00  0.00    +0.213 C 
ATOM      2  S   UNL     1      43.644  78.414  39.627  0.00  0.00    +0.123 S 
ATOM      3  O   UNL     1      43.805  76.928  39.674  0.00  0.00    -0.144 OA
ATOM      4  O   UNL     1      42.465  78.869  40.422  0.00  0.00    -0.144 OA
ATOM      5  O   UNL     1      43.475  78.889  38.031  0.00  0.00    -0.047 OA
ENDROOT
TORSDOF 0
