REMARK  Name = Tirofiban
REMARK  14 active torsions:
REMARK  status: ('A' for Active; 'I' for Inactive)
REMARK    1  A    between atoms: C_2  and  C_3
REMARK    2  A    between atoms: C_3  and  C_4
REMARK    3  A    between atoms: C_4  and  S_5
REMARK    4  A    between atoms: S_5  and  N_8
REMARK    5  A    between atoms: N_8  and  C_9
REMARK    6  A    between atoms: C_9  and  C_10
REMARK    7  A    between atoms: C_9  and  C_28
REMARK    8  A    between atoms: C_10  and  C_11
REMARK    9  A    between atoms: C_14  and  O_17
REMARK   10  A    between atoms: O_17  and  C_18
REMARK   11  A    between atoms: C_18  and  C_19
REMARK   12  A    between atoms: C_19  and  C_20
REMARK   13  A    between atoms: C_20  and  C_21
REMARK   14  A    between atoms: C_21  and  C_22
REMARK                            x       y       z     vdW  Elec       q    Type
REMARK                         _______ _______ _______ _____ _____    ______ ____
ROOT
ATOM      1  C   UNL     1      42.273  76.784  38.849  0.00  0.00    -0.020 A 
ATOM      2  C   UNL     1      42.204  77.849  37.989  0.00  0.00    -0.001 A 
ATOM      3  C   UNL     1      43.039  78.955  38.132  0.00  0.00    +0.037 A 
ATOM      4  C   UNL     1      43.963  79.012  39.146  0.00  0.00    +0.139 A 
ATOM      5  C   UNL     1      44.017  77.904  40.019  0.00  0.00    +0.037 A 
ATOM      6  C   UNL     1      43.194  76.822  39.872  0.00  0.00    -0.001 A 
ENDROOT
BRANCH   1   7
ATOM      7  C   UNL     1      41.391  75.622  38.673  0.00  0.00    +0.057 C 
BRANCH   7   8
ATOM      8  C   UNL     1      40.003  75.947  38.231  0.00  0.00    +0.204 C 
BRANCH   8   9
ATOM      9  C   UNL     1      39.202  74.713  38.125  0.00  0.00    +0.382 C 
ATOM     10  O   UNL     1      38.434  74.305  39.028  0.00  0.00    -0.244 OA
ATOM     11  O   UNL     1      39.262  73.910  36.971  0.00  0.00    -0.244 OA
ENDBRANCH   8   9
BRANCH   8  12
ATOM     12  N   UNL     1      40.039  76.592  36.929  0.00  0.00    -0.072 NA
BRANCH  12  13
ATOM     13  S   UNL     1      38.533  77.341  36.536  0.00  0.00    +0.058 S 
ATOM     14  O   UNL     1      38.751  78.766  36.168  0.00  0.00    -0.156 OA
ATOM     15  O   UNL     1      37.989  76.606  35.347  0.00  0.00    -0.156 OA
BRANCH  13  16
ATOM     16  C   UNL     1      37.376  77.188  37.876  0.00  0.00    +0.171 C 
BRANCH  16  17
ATOM     17  C   UNL     1      36.014  77.693  37.532  0.00  0.00    +0.027 C 
BRANCH  17  19
ATOM     18  C   UNL     1      34.756  78.757  39.413  0.00  0.00    +0.000 C 
ATOM     19  C   UNL     1      34.988  77.513  38.605  0.00  0.00    +0.002 C 
ENDBRANCH  17  19
ENDBRANCH  16  17
ENDBRANCH  13  16
ENDBRANCH  12  13
ENDBRANCH   8  12
ENDBRANCH   7   8
ENDBRANCH   1   7
BRANCH   4  20
ATOM     20  O   UNL     1      44.816  80.037  39.374  0.00  0.00    -0.475 OA
BRANCH  20  21
ATOM     21  C   UNL     1      44.852  81.067  40.263  0.00  0.00    +0.205 C 
BRANCH  21  22
ATOM     22  C   UNL     1      46.141  81.848  40.318  0.00  0.00    +0.047 C 
BRANCH  22  23
ATOM     23  C   UNL     1      46.967  81.439  41.516  0.00  0.00    +0.004 C 
BRANCH  23  24
ATOM     24  C   UNL     1      48.384  81.276  41.113  0.00  0.00    +0.000 C 
BRANCH  24  25
ATOM     25  C   UNL     1      49.325  82.230  41.823  0.00  0.00    +0.003 C 
ATOM     26  C   UNL     1      50.749  81.871  41.561  0.00  0.00    +0.019 C 
ATOM     27  C   UNL     1      51.685  82.758  42.320  0.00  0.00    +0.089 C 
ATOM     28  N   UNL     1      51.113  83.379  43.471  0.00  0.00    -0.218 NA
ATOM     29  C   UNL     1      50.165  82.567  44.169  0.00  0.00    +0.089 C 
ATOM     30  C   UNL     1      49.060  82.052  43.309  0.00  0.00    +0.019 C 
ENDBRANCH  24  25
ENDBRANCH  23  24
ENDBRANCH  22  23
ENDBRANCH  21  22
ENDBRANCH  20  21
ENDBRANCH   4  20
TORSDOF 14
