REMARK  Name = Tiropramide
REMARK  15 active torsions:
REMARK  status: ('A' for Active; 'I' for Inactive)
REMARK    1  A    between atoms: C_2  and  C_3
REMARK    2  A    between atoms: C_3  and  N_4
REMARK    3  A    between atoms: N_4  and  C_5
REMARK    4  A    between atoms: C_5  and  C_6
REMARK    5  A    between atoms: C_8  and  C_10
REMARK    6  A    between atoms: C_10  and  C_11
REMARK    7  A    between atoms: C_10  and  N_26
REMARK    8  A    between atoms: C_11  and  C_12
REMARK    9  A    between atoms: C_15  and  O_18
REMARK   10  A    between atoms: O_18  and  C_19
REMARK   11  A    between atoms: C_19  and  C_20
REMARK   12  A    between atoms: C_20  and  N_21
REMARK   13  A    between atoms: N_21  and  C_22
REMARK   14  A    between atoms: N_21  and  C_24
REMARK   15  A    between atoms: C_27  and  C_29
REMARK                            x       y       z     vdW  Elec       q    Type
REMARK                         _______ _______ _______ _____ _____    ______ ____
ROOT
ATOM      1  C   UNL     1      46.683  80.480  41.392  0.00  0.00    +0.176 C 
ENDROOT
BRANCH   1   3
ATOM      2  N   UNL     1      46.446  77.904  41.755  0.00  0.00    -0.278 N 
ATOM      3  C   UNL     1      46.099  79.290  41.974  0.00  0.00    +0.246 C 
ATOM      4  O   UNL     1      45.115  79.457  42.813  0.00  0.00    -0.273 OA
BRANCH   2   5
ATOM      5  C   UNL     1      47.665  77.698  41.017  0.00  0.00    +0.093 C 
BRANCH   5   7
ATOM      6  C   UNL     1      50.044  76.830  41.030  0.00  0.00    +0.002 C 
ATOM      7  C   UNL     1      48.598  76.644  41.421  0.00  0.00    +0.022 C 
ENDBRANCH   5   7
ENDBRANCH   2   5
BRANCH   2   8
ATOM      8  C   UNL     1      45.708  76.792  42.253  0.00  0.00    +0.093 C 
BRANCH   8   9
ATOM      9  C   UNL     1      45.643  76.562  43.718  0.00  0.00    +0.022 C 
ATOM     10  C   UNL     1      44.754  75.453  44.191  0.00  0.00    +0.002 C 
ENDBRANCH   8   9
ENDBRANCH   2   8
ENDBRANCH   1   3
BRANCH   1  11
ATOM     11  N   UNL     1      47.520  81.271  42.217  0.00  0.00    -0.194 NA
ATOM     12  C   UNL     1      48.643  81.996  41.676  0.00  0.00    +0.265 C 
ATOM     13  O   UNL     1      49.036  81.662  40.530  0.00  0.00    -0.268 OA
BRANCH  12  14
ATOM     14  C   UNL     1      49.319  83.067  42.383  0.00  0.00    +0.055 A 
ATOM     15  C   UNL     1      50.559  83.529  42.015  0.00  0.00    +0.005 A 
ATOM     16  C   UNL     1      51.152  84.559  42.733  0.00  0.00    +0.000 A 
ATOM     17  C   UNL     1      50.520  85.126  43.809  0.00  0.00    +0.000 A 
ATOM     18  C   UNL     1      49.265  84.647  44.170  0.00  0.00    +0.000 A 
ATOM     19  C   UNL     1      48.670  83.635  43.472  0.00  0.00    +0.005 A 
ENDBRANCH  12  14
ENDBRANCH   1  11
BRANCH   1  20
ATOM     20  C   UNL     1      45.637  81.313  40.675  0.00  0.00    +0.057 C 
BRANCH  20  21
ATOM     21  C   UNL     1      44.776  80.467  39.829  0.00  0.00    -0.020 A 
ATOM     22  C   UNL     1      43.796  79.658  40.419  0.00  0.00    -0.001 A 
ATOM     23  C   UNL     1      43.022  78.831  39.658  0.00  0.00    +0.037 A 
ATOM     24  C   UNL     1      43.139  78.727  38.274  0.00  0.00    +0.139 A 
ATOM     25  C   UNL     1      44.099  79.522  37.707  0.00  0.00    +0.037 A 
ATOM     26  C   UNL     1      44.903  80.375  38.464  0.00  0.00    -0.001 A 
BRANCH  24  27
ATOM     27  O   UNL     1      42.296  77.858  37.668  0.00  0.00    -0.474 OA
BRANCH  27  28
ATOM     28  C   UNL     1      41.205  77.156  38.219  0.00  0.00    +0.223 C 
BRANCH  28  29
ATOM     29  C   UNL     1      40.068  77.339  37.239  0.00  0.00    +0.120 C 
BRANCH  29  30
ATOM     30  N   UNL     1      39.225  76.238  37.034  0.00  0.00    -0.270 NA
BRANCH  30  31
ATOM     31  C   UNL     1      38.114  76.053  37.862  0.00  0.00    +0.072 C 
ATOM     32  C   UNL     1      37.686  74.635  38.090  0.00  0.00    +0.019 C 
ENDBRANCH  30  31
BRANCH  30  33
ATOM     33  C   UNL     1      39.839  75.100  36.465  0.00  0.00    +0.072 C 
ATOM     34  C   UNL     1      40.627  74.268  37.479  0.00  0.00    +0.019 C 
ENDBRANCH  30  33
ENDBRANCH  29  30
ENDBRANCH  28  29
ENDBRANCH  27  28
ENDBRANCH  24  27
ENDBRANCH  20  21
ENDBRANCH   1  20
TORSDOF 15
