REMARK  Name = Tivozanib
REMARK  5 active torsions:
REMARK  status: ('A' for Active; 'I' for Inactive)
REMARK    1  A    between atoms: N_10  and  C_11
REMARK    2  A    between atoms: C_14  and  O_17
REMARK    3  A    between atoms: O_17  and  C_18
REMARK    4  A    between atoms: C_21  and  O_30
REMARK    5  A    between atoms: C_22  and  O_28
REMARK                            x       y       z     vdW  Elec       q    Type
REMARK                         _______ _______ _______ _____ _____    ______ ____
ROOT
ATOM      1  C   UNL     1      50.239  83.224  43.625  0.00  0.00    +0.086 A 
ATOM      2  C   UNL     1      48.949  83.749  43.528  0.00  0.00    +0.076 A 
ATOM      3  C   UNL     1      47.980  82.993  42.922  0.00  0.00    +0.050 A 
ATOM      4  C   UNL     1      48.295  81.728  42.420  0.00  0.00    +0.146 A 
ATOM      5  C   UNL     1      49.566  81.208  42.514  0.00  0.00    +0.039 A 
ATOM      6  C   UNL     1      50.557  81.974  43.130  0.00  0.00    +0.021 A 
ATOM      7 CL   UNL     1      48.619  85.351  44.184  0.00  0.00    -0.081 Cl
ENDROOT
BRANCH   1  17
ATOM      8  C   UNL     1      55.748  82.624  49.449  0.00  0.00    +0.075 C 
ATOM      9  C   UNL     1      54.758  83.497  48.765  0.00  0.00    +0.156 A 
ATOM     10  C   UNL     1      53.713  83.070  47.938  0.00  0.00    +0.075 A 
ATOM     11  C   UNL     1      53.033  84.189  47.508  0.00  0.00    +0.197 A 
ATOM     12  N   UNL     1      53.667  85.230  48.071  0.00  0.00    -0.060 NA
ATOM     13  O   UNL     1      54.663  84.807  48.795  0.00  0.00    -0.356 OA
ATOM     14  N   UNL     1      51.903  84.191  46.651  0.00  0.00    -0.138 NA
ATOM     15  C   UNL     1      51.937  83.540  45.384  0.00  0.00    +0.349 C 
ATOM     16  O   UNL     1      52.642  82.497  45.308  0.00  0.00    -0.248 OA
ATOM     17  N   UNL     1      51.223  84.028  44.257  0.00  0.00    -0.160 NA
ENDBRANCH   1  17
BRANCH   4  18
ATOM     18  O   UNL     1      47.289  81.022  41.831  0.00  0.00    -0.453 OA
BRANCH  18  19
ATOM     19  C   UNL     1      46.737  81.290  40.599  0.00  0.00    +0.148 A 
ATOM     20  C   UNL     1      45.767  80.454  40.087  0.00  0.00    +0.055 A 
ATOM     21  C   UNL     1      45.337  79.334  40.773  0.00  0.00    +0.045 A 
ATOM     22  C   UNL     1      44.379  78.518  40.227  0.00  0.00    +0.173 A 
ATOM     23  C   UNL     1      43.817  78.774  39.002  0.00  0.00    +0.174 A 
ATOM     24  C   UNL     1      44.229  79.884  38.299  0.00  0.00    +0.059 A 
ATOM     25  C   UNL     1      45.206  80.716  38.854  0.00  0.00    +0.087 A 
ATOM     26  N   UNL     1      45.609  81.787  38.152  0.00  0.00    -0.244 NA
ATOM     27  C   UNL     1      46.553  82.619  38.621  0.00  0.00    +0.102 A 
ATOM     28  C   UNL     1      47.133  82.390  39.847  0.00  0.00    +0.058 A 
BRANCH  23  29
ATOM     29  O   UNL     1      42.853  77.929  38.484  0.00  0.00    -0.468 OA
ATOM     30  C   UNL     1      42.254  78.235  37.240  0.00  0.00    +0.253 C 
ENDBRANCH  23  29
BRANCH  22  31
ATOM     31  O   UNL     1      43.942  77.383  40.919  0.00  0.00    -0.468 OA
ATOM     32  C   UNL     1      44.537  77.063  42.168  0.00  0.00    +0.253 C 
ENDBRANCH  22  31
ENDBRANCH  18  19
ENDBRANCH   4  18
TORSDOF 5
