REMARK  Name = Tobramycin
REMARK  6 active torsions:
REMARK  status: ('A' for Active; 'I' for Inactive)
REMARK    1  A    between atoms: C_3  and  O_21
REMARK    2  A    between atoms: C_5  and  O_8
REMARK    3  A    between atoms: O_8  and  C_9
REMARK    4  A    between atoms: C_13  and  C_15
REMARK    5  A    between atoms: O_21  and  C_22
REMARK    6  A    between atoms: C_26  and  C_28
REMARK                            x       y       z     vdW  Elec       q    Type
REMARK                         _______ _______ _______ _____ _____    ______ ____
ROOT
ATOM      1  C   UNL     1      46.106  82.407  39.928  0.00  0.00    +0.043 C 
ATOM      2  C   UNL     1      45.642  81.216  39.113  0.00  0.00    +0.123 C 
ATOM      3  C   UNL     1      45.151  80.223  40.101  0.00  0.00    +0.168 C 
ATOM      4  C   UNL     1      46.203  79.752  41.049  0.00  0.00    +0.209 C 
ATOM      5  C   UNL     1      47.460  80.529  40.903  0.00  0.00    +0.168 C 
ATOM      6  C   UNL     1      47.359  81.980  40.655  0.00  0.00    +0.123 C 
ATOM      7  N   UNL     1      48.541  82.481  39.930  0.00  0.00    -0.130 NA
ATOM      8  O   UNL     1      45.758  79.943  42.382  0.00  0.00    -0.218 OA
ATOM      9  N   UNL     1      46.724  80.837  38.276  0.00  0.00    -0.130 NA
ENDROOT
BRANCH   5  10
ATOM     10  O   UNL     1      48.257  80.313  42.048  0.00  0.00    -0.327 OA
BRANCH  10  11
ATOM     11  C   UNL     1      48.994  81.440  42.399  0.00  0.00    +0.268 C 
ATOM     12  C   UNL     1      50.383  81.424  41.818  0.00  0.00    +0.228 C 
ATOM     13  C   UNL     1      51.148  82.592  42.394  0.00  0.00    +0.160 C 
ATOM     14  C   UNL     1      50.365  83.850  42.502  0.00  0.00    +0.202 C 
ATOM     15  C   UNL     1      48.887  83.731  42.427  0.00  0.00    +0.182 C 
ATOM     16  O   UNL     1      48.389  82.594  41.849  0.00  0.00    -0.326 OA
ATOM     17  O   UNL     1      50.692  84.415  43.760  0.00  0.00    -0.219 OA
ATOM     18  N   UNL     1      52.282  82.820  41.516  0.00  0.00    -0.127 NA
ATOM     19  O   UNL     1      51.078  80.255  42.011  0.00  0.00    -0.216 OA
BRANCH  15  20
ATOM     20  C   UNL     1      48.217  84.052  43.767  0.00  0.00    +0.214 C 
ATOM     21  O   UNL     1      47.371  85.140  43.592  0.00  0.00    -0.218 OA
ENDBRANCH  15  20
ENDBRANCH  10  11
ENDBRANCH   5  10
BRANCH   3  22
ATOM     22  O   UNL     1      44.380  79.203  39.576  0.00  0.00    -0.328 OA
BRANCH  22  23
ATOM     23  C   UNL     1      43.380  78.736  40.399  0.00  0.00    +0.253 C 
ATOM     24  C   UNL     1      43.562  77.276  40.649  0.00  0.00    +0.151 C 
ATOM     25  C   UNL     1      42.416  76.434  40.142  0.00  0.00    +0.060 C 
ATOM     26  C   UNL     1      42.079  76.997  38.755  0.00  0.00    +0.182 C 
ATOM     27  C   UNL     1      41.550  78.374  38.985  0.00  0.00    +0.167 C 
ATOM     28  O   UNL     1      42.164  79.121  39.933  0.00  0.00    -0.328 OA
ATOM     29  O   UNL     1      41.059  76.208  38.251  0.00  0.00    -0.220 OA
ATOM     30  N   UNL     1      44.759  76.754  39.978  0.00  0.00    -0.127 NA
BRANCH  27  31
ATOM     31  C   UNL     1      41.447  79.055  37.635  0.00  0.00    +0.141 C 
ATOM     32  N   UNL     1      40.446  78.316  36.877  0.00  0.00    -0.129 NA
ENDBRANCH  27  31
ENDBRANCH  22  23
ENDBRANCH   3  22
TORSDOF 6
