REMARK  Name = TOCOTRIENOL
REMARK  9 active torsions:
REMARK  status: ('A' for Active; 'I' for Inactive)
REMARK    1  A    between atoms: C_3  and  C_4
REMARK    2  A    between atoms: C_4  and  C_5
REMARK    3  A    between atoms: C_5  and  C_6
REMARK    4  A    between atoms: C_7  and  C_8
REMARK    5  A    between atoms: C_8  and  C_9
REMARK    6  A    between atoms: C_9  and  C_10
REMARK    7  A    between atoms: C_11  and  C_12
REMARK    8  A    between atoms: C_12  and  C_13
REMARK    9  A    between atoms: C_13  and  C_14
REMARK                            x       y       z     vdW  Elec       q    Type
REMARK                         _______ _______ _______ _____ _____    ______ ____
ROOT
ATOM      1  C   UNL     1      52.120  82.438  45.785  0.00  0.00    -0.048 C 
ATOM      2  C   UNL     1      50.956  82.835  45.291  0.00  0.00    -0.034 C 
ATOM      3  C   UNL     1      53.160  81.738  44.991  0.00  0.00    +0.026 C 
ENDROOT
BRANCH   1   4
ATOM      4  C   UNL     1      52.400  82.710  47.220  0.00  0.00    +0.026 C 
BRANCH   4   5
ATOM      5  C   UNL     1      53.779  82.067  47.504  0.00  0.00    +0.030 C 
BRANCH   5   7
ATOM      6  C   UNL     1      55.246  82.123  49.475  0.00  0.00    -0.048 C 
ATOM      7  C   UNL     1      54.229  82.568  48.788  0.00  0.00    -0.034 C 
ATOM      8  C   UNL     1      55.974  80.923  48.904  0.00  0.00    +0.026 C 
BRANCH   6   9
ATOM      9  C   UNL     1      55.667  82.713  50.755  0.00  0.00    +0.026 C 
BRANCH   9  10
ATOM     10  C   UNL     1      55.977  81.673  51.793  0.00  0.00    +0.030 C 
BRANCH  10  13
ATOM     11  C   UNL     1      56.944  79.706  53.561  0.00  0.00    +0.026 C 
ATOM     12  C   UNL     1      57.808  80.248  52.487  0.00  0.00    -0.048 C 
ATOM     13  C   UNL     1      57.379  81.247  51.733  0.00  0.00    -0.034 C 
ATOM     14  C   UNL     1      59.144  79.673  52.260  0.00  0.00    +0.026 C 
ENDBRANCH  10  13
ENDBRANCH   9  10
ENDBRANCH   6   9
ENDBRANCH   5   7
ENDBRANCH   4   5
ENDBRANCH   1   4
BRANCH   2  15
ATOM     15  C   UNL     1      50.519  82.524  43.882  0.00  0.00    +0.029 C 
BRANCH  15  16
ATOM     16  C   UNL     1      49.201  81.839  43.842  0.00  0.00    +0.045 C 
BRANCH  16  17
ATOM     17  C   UNL     1      48.399  82.276  42.669  0.00  0.00    +0.134 C 
ATOM     18  C   UNL     1      49.149  82.585  41.425  0.00  0.00    +0.045 C 
ATOM     19  C   UNL     1      48.202  83.377  40.510  0.00  0.00    +0.033 C 
ATOM     20  C   UNL     1      47.065  82.468  40.213  0.00  0.00    +0.015 A 
ATOM     21  C   UNL     1      46.712  81.482  41.112  0.00  0.00    +0.134 A 
ATOM     22  O   UNL     1      47.399  81.304  42.316  0.00  0.00    -0.483 OA
ATOM     23  C   UNL     1      45.642  80.675  40.764  0.00  0.00    +0.040 A 
ATOM     24  C   UNL     1      44.946  80.825  39.587  0.00  0.00    +0.045 A 
ATOM     25  C   UNL     1      45.303  81.810  38.694  0.00  0.00    +0.196 A 
ATOM     26  C   UNL     1      46.369  82.624  39.026  0.00  0.00    +0.041 A 
ATOM     27  O   UNL     1      44.602  81.971  37.493  0.00  0.00    -0.287 OA
ATOM     28  C   UNL     1      47.589  83.499  43.118  0.00  0.00    +0.044 C 
ENDBRANCH  16  17
ENDBRANCH  15  16
ENDBRANCH   2  15
TORSDOF 9
