REMARK  Name = Tofacitinib
REMARK  3 active torsions:
REMARK  status: ('A' for Active; 'I' for Inactive)
REMARK    1  A    between atoms: C_7  and  N_8
REMARK    2  A    between atoms: C_19  and  C_21
REMARK    3  A    between atoms: C_21  and  C_22
REMARK                            x       y       z     vdW  Elec       q    Type
REMARK                         _______ _______ _______ _____ _____    ______ ____
ROOT
ATOM      1  C   UNL     1      46.584  84.085  42.863  0.00  0.00    +0.002 C 
ATOM      2  C   UNL     1      47.986  83.625  43.070  0.00  0.00    +0.022 C 
ATOM      3  C   UNL     1      48.928  84.831  43.194  0.00  0.00    +0.023 C 
ATOM      4  C   UNL     1      50.184  84.283  43.837  0.00  0.00    +0.094 C 
ATOM      5  N   UNL     1      50.714  83.277  42.917  0.00  0.00    -0.277 N 
ATOM      6  C   UNL     1      49.858  82.257  42.415  0.00  0.00    +0.113 C 
ATOM      7  C   UNL     1      48.525  82.814  41.906  0.00  0.00    +0.094 C 
ATOM      8  C   UNL     1      52.085  83.379  42.569  0.00  0.00    +0.241 C 
ATOM      9  O   UNL     1      52.548  82.532  41.774  0.00  0.00    -0.274 OA
ENDROOT
BRANCH   7  10
ATOM     10  N   UNL     1      47.693  81.712  41.568  0.00  0.00    -0.291 N 
ATOM     11  C   UNL     1      47.681  80.499  42.386  0.00  0.00    +0.114 C 
ATOM     12  C   UNL     1      46.809  81.733  40.440  0.00  0.00    +0.136 A 
ATOM     13  N   UNL     1      46.861  82.837  39.642  0.00  0.00    -0.209 NA
ATOM     14  C   UNL     1      46.053  82.907  38.576  0.00  0.00    +0.201 A 
ATOM     15  N   UNL     1      45.193  81.924  38.269  0.00  0.00    -0.205 NA
ATOM     16  C   UNL     1      45.126  80.830  39.041  0.00  0.00    +0.167 A 
ATOM     17  C   UNL     1      45.947  80.721  40.154  0.00  0.00    +0.069 A 
ATOM     18  C   UNL     1      45.661  79.520  40.734  0.00  0.00    +0.027 A 
ATOM     19  C   UNL     1      44.678  78.908  39.983  0.00  0.00    +0.101 A 
ATOM     20  N   UNL     1      44.358  79.707  38.959  0.00  0.00    -0.225 NA
ENDBRANCH   7  10
BRANCH   8  21
ATOM     21  C   UNL     1      52.976  84.429  43.099  0.00  0.00    +0.190 C 
BRANCH  21  22
ATOM     22  C   UNL     1      54.109  83.798  43.767  0.00  0.00    +0.083 C 
ATOM     23  N   UNL     1      55.014  83.305  44.306  0.00  0.00    -0.195 NA
ENDBRANCH  21  22
ENDBRANCH   8  21
TORSDOF 3
