REMARK  Name = Tofogliflozin
REMARK  4 active torsions:
REMARK  status: ('A' for Active; 'I' for Inactive)
REMARK    1  A    between atoms: C_2  and  C_3
REMARK    2  A    between atoms: C_6  and  C_9
REMARK    3  A    between atoms: C_9  and  C_10
REMARK    4  A    between atoms: C_20  and  C_22
REMARK                            x       y       z     vdW  Elec       q    Type
REMARK                         _______ _______ _______ _____ _____    ______ ____
ROOT
ATOM      1  C   UNL     1      45.426  80.251  39.853  0.00  0.00    -0.018 A 
ATOM      2  C   UNL     1      44.181  79.829  39.444  0.00  0.00    -0.004 A 
ATOM      3  C   UNL     1      43.640  78.632  39.881  0.00  0.00    +0.029 A 
ATOM      4  C   UNL     1      44.333  77.814  40.748  0.00  0.00    +0.008 A 
ATOM      5  C   UNL     1      43.482  76.619  41.018  0.00  0.00    +0.171 C 
ATOM      6  O   UNL     1      42.218  77.117  40.721  0.00  0.00    -0.324 OA
ATOM      7  C   UNL     1      42.360  77.950  39.611  0.00  0.00    +0.239 C 
ATOM      8  C   UNL     1      42.423  77.061  38.396  0.00  0.00    +0.240 C 
ATOM      9  C   UNL     1      41.096  76.316  38.344  0.00  0.00    +0.220 C 
ATOM     10  C   UNL     1      39.968  77.300  38.255  0.00  0.00    +0.214 C 
ATOM     11  C   UNL     1      40.442  78.693  38.535  0.00  0.00    +0.184 C 
ATOM     12  O   UNL     1      41.282  78.812  39.608  0.00  0.00    -0.326 OA
ATOM     13  O   UNL     1      39.419  77.256  36.981  0.00  0.00    -0.218 OA
ATOM     14  O   UNL     1      41.069  75.329  37.395  0.00  0.00    -0.217 OA
ATOM     15  O   UNL     1      42.721  77.718  37.232  0.00  0.00    -0.215 OA
ATOM     16  C   UNL     1      45.581  78.241  41.155  0.00  0.00    -0.002 A 
ATOM     17  C   UNL     1      46.132  79.432  40.727  0.00  0.00    -0.004 A 
ENDROOT
BRANCH  11  18
ATOM     18  C   UNL     1      39.230  79.591  38.818  0.00  0.00    +0.214 C 
ATOM     19  O   UNL     1      38.453  79.064  39.847  0.00  0.00    -0.218 OA
ENDBRANCH  11  18
BRANCH   1  20
ATOM     20  C   UNL     1      46.040  81.531  39.405  0.00  0.00    +0.053 C 
BRANCH  20  24
ATOM     21  C   UNL     1      48.664  83.071  42.336  0.00  0.00    -0.022 A 
ATOM     22  C   UNL     1      47.300  83.179  42.524  0.00  0.00    -0.005 A 
ATOM     23  C   UNL     1      46.430  82.685  41.583  0.00  0.00    -0.004 A 
ATOM     24  C   UNL     1      46.958  82.079  40.448  0.00  0.00    -0.018 A 
ATOM     25  C   UNL     1      48.320  81.974  40.266  0.00  0.00    -0.004 A 
ATOM     26  C   UNL     1      49.183  82.469  41.208  0.00  0.00    -0.005 A 
BRANCH  21  28
ATOM     27  C   UNL     1      51.015  83.544  42.907  0.00  0.00    +0.005 C 
ATOM     28  C   UNL     1      49.584  83.614  43.368  0.00  0.00    +0.026 C 
ENDBRANCH  21  28
ENDBRANCH  20  24
ENDBRANCH   1  20
TORSDOF 4
