REMARK  Name = Tolcapone
REMARK  3 active torsions:
REMARK  status: ('A' for Active; 'I' for Inactive)
REMARK    1  A    between atoms: C_5  and  C_8
REMARK    2  A    between atoms: C_8  and  C_10
REMARK    3  A    between atoms: C_12  and  N_18
REMARK                            x       y       z     vdW  Elec       q    Type
REMARK                         _______ _______ _______ _____ _____    ______ ____
ROOT
ATOM      1  C   UNL     1      47.044  80.888  41.020  0.00  0.00    +0.044 A 
ATOM      2  C   UNL     1      46.057  79.922  40.848  0.00  0.00    +0.031 A 
ATOM      3  C   UNL     1      45.130  80.024  39.832  0.00  0.00    +0.185 A 
ATOM      4  C   UNL     1      45.210  81.112  38.991  0.00  0.00    +0.256 A 
ATOM      5  C   UNL     1      46.194  82.088  39.149  0.00  0.00    +0.236 A 
ATOM      6  C   UNL     1      47.120  81.977  40.173  0.00  0.00    +0.049 A 
ATOM      7  O   UNL     1      46.220  83.161  38.266  0.00  0.00    -0.283 OA
ATOM      8  O   UNL     1      44.256  81.193  37.967  0.00  0.00    -0.281 OA
ENDROOT
BRANCH   3   9
ATOM      9  N   UNL     1      44.123  79.039  39.661  0.00  0.00    +0.061 N 
ATOM     10  O   UNL     1      43.257  79.147  38.749  0.00  0.00    -0.126 OA
ATOM     11  O   UNL     1      44.052  77.935  40.477  0.00  0.00    -0.126 OA
ENDBRANCH   3   9
BRANCH   1  12
ATOM     12  C   UNL     1      47.990  80.789  42.126  0.00  0.00    +0.196 C 
ATOM     13  O   UNL     1      48.183  79.721  42.745  0.00  0.00    -0.287 OA
BRANCH  12  18
ATOM     14  C   UNL     1      50.992  85.421  43.844  0.00  0.00    +0.031 C 
ATOM     15  C   UNL     1      50.212  84.232  43.402  0.00  0.00    -0.022 A 
ATOM     16  C   UNL     1      48.823  84.176  43.502  0.00  0.00    -0.004 A 
ATOM     17  C   UNL     1      48.127  83.065  43.084  0.00  0.00    +0.003 A 
ATOM     18  C   UNL     1      48.762  81.967  42.553  0.00  0.00    +0.039 A 
ATOM     19  C   UNL     1      50.131  82.002  42.447  0.00  0.00    +0.003 A 
ATOM     20  C   UNL     1      50.820  83.116  42.867  0.00  0.00    -0.004 A 
ENDBRANCH  12  18
ENDBRANCH   1  12
TORSDOF 3
