REMARK  Name = Tolnaftate
REMARK  4 active torsions:
REMARK  status: ('A' for Active; 'I' for Inactive)
REMARK    1  A    between atoms: C_4  and  N_8
REMARK    2  A    between atoms: N_8  and  C_10
REMARK    3  A    between atoms: C_10  and  O_12
REMARK    4  A    between atoms: O_12  and  C_13
REMARK                            x       y       z     vdW  Elec       q    Type
REMARK                         _______ _______ _______ _____ _____    ______ ____
ROOT
ATOM      1  C   UNL     1      46.262  81.402  39.406  0.00  0.00    +0.241 C 
ATOM      2  S   UNL     1      45.055  81.798  38.432  0.00  0.00    +0.007 S 
ENDROOT
BRANCH   1   3
ATOM      3  N   UNL     1      47.210  82.283  39.900  0.00  0.00    -0.251 N 
ATOM      4  C   UNL     1      47.170  83.640  39.271  0.00  0.00    +0.121 C 
BRANCH   3   8
ATOM      5  C   UNL     1      51.809  82.687  41.773  0.00  0.00    +0.031 C 
ATOM      6  C   UNL     1      50.405  82.218  41.890  0.00  0.00    -0.021 A 
ATOM      7  C   UNL     1      49.504  82.478  40.846  0.00  0.00    +0.011 A 
ATOM      8  C   UNL     1      48.205  82.065  40.913  0.00  0.00    +0.054 A 
ATOM      9  C   UNL     1      47.778  81.367  42.056  0.00  0.00    +0.015 A 
ATOM     10  C   UNL     1      48.667  81.118  43.072  0.00  0.00    +0.001 A 
ATOM     11  C   UNL     1      49.976  81.541  42.991  0.00  0.00    -0.004 A 
ENDBRANCH   3   8
ENDBRANCH   1   3
BRANCH   1  12
ATOM     12  O   UNL     1      46.350  80.043  39.781  0.00  0.00    -0.434 OA
BRANCH  12  13
ATOM     13  C   UNL     1      45.191  79.260  39.840  0.00  0.00    +0.147 A 
ATOM     14  C   UNL     1      44.232  79.357  38.853  0.00  0.00    +0.038 A 
ATOM     15  C   UNL     1      43.066  78.602  38.865  0.00  0.00    +0.003 A 
ATOM     16  C   UNL     1      42.111  78.694  37.888  0.00  0.00    +0.000 A 
ATOM     17  C   UNL     1      40.950  77.944  37.899  0.00  0.00    +0.000 A 
ATOM     18  C   UNL     1      40.717  77.054  38.928  0.00  0.00    +0.000 A 
ATOM     19  C   UNL     1      41.679  76.954  39.923  0.00  0.00    +0.000 A 
ATOM     20  C   UNL     1      42.836  77.714  39.895  0.00  0.00    +0.000 A 
ATOM     21  C   UNL     1      43.798  77.611  40.893  0.00  0.00    +0.003 A 
ATOM     22  C   UNL     1      44.950  78.368  40.865  0.00  0.00    +0.038 A 
ENDBRANCH  12  13
ENDBRANCH   1  12
TORSDOF 4
