REMARK  Name = Tolonium_chloride
REMARK  0 active torsions:
REMARK  status: ('A' for Active; 'I' for Inactive)
REMARK                            x       y       z     vdW  Elec       q    Type
REMARK                         _______ _______ _______ _____ _____    ______ ____
ROOT
ATOM      1  C   UNL     1      48.207  82.914  40.006  0.00  0.00    +0.032 C 
ATOM      2  C   UNL     1      47.390  81.711  40.234  0.00  0.00    -0.004 A 
ATOM      3  C   UNL     1      46.327  81.411  39.429  0.00  0.00    +0.017 A 
ATOM      4  C   UNL     1      45.531  80.281  39.614  0.00  0.00    +0.087 A 
ATOM      5  C   UNL     1      45.867  79.462  40.665  0.00  0.00    +0.048 A 
ATOM      6  C   UNL     1      46.939  79.771  41.472  0.00  0.00    +0.026 A 
ATOM      7  C   UNL     1      47.718  80.878  41.290  0.00  0.00    +0.086 A 
ATOM      8  N   UNL     1      48.817  81.190  42.121  0.00  0.00    -0.128 NA
ATOM      9  S   UNL     1      44.877  78.065  40.888  0.00  0.00    -0.084 S 
ATOM     10  C   UNL     1      43.633  77.965  39.727  0.00  0.00    +0.049 A 
ATOM     11  C   UNL     1      42.678  76.973  39.632  0.00  0.00    +0.025 A 
ATOM     12  C   UNL     1      41.706  76.984  38.647  0.00  0.00    +0.057 A 
ATOM     13  N   UNL     1      40.852  76.025  38.624  0.00  0.00    -0.344 N 
ATOM     14  C   UNL     1      40.838  74.938  39.556  0.00  0.00    +0.126 C 
ATOM     15  C   UNL     1      39.852  76.070  37.580  0.00  0.00    +0.126 C 
ATOM     16  C   UNL     1      41.721  78.018  37.760  0.00  0.00    +0.018 A 
ATOM     17  C   UNL     1      42.646  79.055  37.786  0.00  0.00    +0.021 A 
ATOM     18  C   UNL     1      43.644  79.070  38.775  0.00  0.00    +0.087 A 
ATOM     19  N   UNL     1      44.510  80.065  38.778  0.00  0.00    -0.244 NA
ENDROOT
TORSDOF 0
REMARK  Name = Tolonium_chloride
REMARK  0 active torsions:
REMARK  status: ('A' for Active; 'I' for Inactive)
REMARK                            x       y       z     vdW  Elec       q    Type
REMARK                         _______ _______ _______ _____ _____    ______ ____
ROOT
ATOM      1 CL   UNL     1      44.315  78.826  39.521  0.00  0.00    +0.000 Cl
ENDROOT
TORSDOF 0
