REMARK  Name = Tolvaptan
REMARK  3 active torsions:
REMARK  status: ('A' for Active; 'I' for Inactive)
REMARK    1  A    between atoms: C_7  and  C_8
REMARK    2  A    between atoms: N_10  and  C_11
REMARK    3  A    between atoms: C_14  and  C_17
REMARK                            x       y       z     vdW  Elec       q    Type
REMARK                         _______ _______ _______ _____ _____    ______ ____
ROOT
ATOM      1  C   UNL     1      47.371  80.878  41.530  0.00  0.00    +0.073 A 
ATOM      2  C   UNL     1      46.946  81.532  40.387  0.00  0.00    +0.012 A 
ATOM      3  C   UNL     1      45.886  81.051  39.626  0.00  0.00    -0.016 A 
ATOM      4  C   UNL     1      45.253  79.896  40.029  0.00  0.00    +0.050 A 
ATOM      5  C   UNL     1      45.679  79.258  41.160  0.00  0.00    +0.006 A 
ATOM      6  C   UNL     1      46.733  79.740  41.915  0.00  0.00    +0.017 A 
ATOM      7  C   UNL     1      45.465  81.775  38.397  0.00  0.00    +0.031 C 
ENDROOT
BRANCH   4   8
ATOM      8  C   UNL     1      44.116  79.329  39.267  0.00  0.00    +0.252 C 
ATOM      9  O   UNL     1      43.476  80.152  38.601  0.00  0.00    -0.270 OA
ATOM     10  N   UNL     1      43.831  77.963  39.322  0.00  0.00    -0.255 N 
ATOM     11  C   UNL     1      44.857  77.059  39.907  0.00  0.00    +0.099 C 
ATOM     12  C   UNL     1      44.394  76.753  41.291  0.00  0.00    +0.025 C 
ATOM     13  C   UNL     1      43.142  76.006  41.471  0.00  0.00    +0.039 C 
ATOM     14  C   UNL     1      42.475  75.369  40.319  0.00  0.00    +0.176 C 
ATOM     15  C   UNL     1      41.915  76.296  39.307  0.00  0.00    +0.022 A 
ATOM     16  C   UNL     1      42.580  77.454  38.877  0.00  0.00    +0.053 A 
ATOM     17  C   UNL     1      42.051  78.278  37.910  0.00  0.00    +0.016 A 
ATOM     18  C   UNL     1      40.839  77.929  37.373  0.00  0.00    +0.013 A 
ATOM     19  C   UNL     1      40.164  76.775  37.794  0.00  0.00    +0.058 A 
ATOM     20  C   UNL     1      40.706  75.954  38.766  0.00  0.00    +0.011 A 
ATOM     21 CL   UNL     1      38.612  76.312  37.100  0.00  0.00    -0.082 Cl
ATOM     22  O   UNL     1      41.519  74.468  40.785  0.00  0.00    -0.218 OA
ENDBRANCH   4   8
BRANCH   1  25
ATOM     23  C   UNL     1      49.249  82.489  41.634  0.00  0.00    +0.269 C 
ATOM     24  O   UNL     1      49.191  82.620  40.390  0.00  0.00    -0.268 OA
ATOM     25  N   UNL     1      48.493  81.434  42.240  0.00  0.00    -0.175 NA
BRANCH  23  32
ATOM     26  C   UNL     1      52.126  82.327  41.491  0.00  0.00    +0.031 C 
ATOM     27  C   UNL     1      51.429  83.330  42.337  0.00  0.00    -0.017 A 
ATOM     28  C   UNL     1      52.203  84.222  43.081  0.00  0.00    -0.004 A 
ATOM     29  C   UNL     1      51.591  85.169  43.875  0.00  0.00    -0.000 A 
ATOM     30  C   UNL     1      50.224  85.254  43.949  0.00  0.00    +0.000 A 
ATOM     31  C   UNL     1      49.477  84.355  43.200  0.00  0.00    +0.004 A 
ATOM     32  C   UNL     1      50.067  83.401  42.401  0.00  0.00    +0.051 A 
ENDBRANCH  23  32
ENDBRANCH   1  25
TORSDOF 3
