REMARK  Name = Topetecan
REMARK  3 active torsions:
REMARK  status: ('A' for Active; 'I' for Inactive)
REMARK    1  A    between atoms: C_2  and  C_3
REMARK    2  A    between atoms: C_21  and  C_22
REMARK    3  A    between atoms: C_22  and  N_23
REMARK                            x       y       z     vdW  Elec       q    Type
REMARK                         _______ _______ _______ _____ _____    ______ ____
ROOT
ATOM      1  C   UNL     1      48.437  81.526  41.428  0.00  0.00    +0.233 C 
ATOM      2  C   UNL     1      47.235  81.189  40.633  0.00  0.00    +0.021 A 
ATOM      3  C   UNL     1      46.868  82.004  39.588  0.00  0.00    +0.076 A 
ATOM      4  C   UNL     1      47.645  83.208  39.214  0.00  0.00    +0.240 C 
ATOM      5  O   UNL     1      49.006  83.073  39.594  0.00  0.00    -0.441 OA
ATOM      6  C   UNL     1      49.429  82.187  40.546  0.00  0.00    +0.349 C 
ATOM      7  O   UNL     1      50.638  81.929  40.681  0.00  0.00    -0.247 OA
ATOM      8  C   UNL     1      45.753  81.711  38.838  0.00  0.00    +0.260 A 
ATOM      9  O   UNL     1      45.424  82.480  37.870  0.00  0.00    -0.267 OA
ATOM     10  N   UNL     1      44.973  80.625  39.086  0.00  0.00    -0.290 N 
ATOM     11  C   UNL     1      43.783  80.135  38.442  0.00  0.00    +0.137 C 
ATOM     12  C   UNL     1      43.419  78.914  39.193  0.00  0.00    +0.020 A 
ATOM     13  C   UNL     1      42.401  77.991  39.095  0.00  0.00    +0.000 A 
ATOM     14  C   UNL     1      42.290  76.916  39.944  0.00  0.00    +0.018 A 
ATOM     15  C   UNL     1      43.246  76.745  40.956  0.00  0.00    +0.081 A 
ATOM     16  C   UNL     1      43.175  75.700  41.856  0.00  0.00    +0.022 A 
ATOM     17  C   UNL     1      42.129  74.808  41.746  0.00  0.00    +0.043 A 
ATOM     18  C   UNL     1      41.160  74.917  40.778  0.00  0.00    +0.193 A 
ATOM     19  C   UNL     1      41.272  75.991  39.884  0.00  0.00    +0.034 A 
ATOM     20  O   UNL     1      40.125  73.995  40.706  0.00  0.00    -0.287 OA
ATOM     21  N   UNL     1      44.235  77.666  41.028  0.00  0.00    -0.244 NA
ATOM     22  C   UNL     1      44.347  78.717  40.200  0.00  0.00    +0.095 A 
ATOM     23  C   UNL     1      45.310  79.817  40.097  0.00  0.00    +0.080 A 
ATOM     24  C   UNL     1      46.429  80.093  40.866  0.00  0.00    +0.017 A 
ATOM     25  O   UNL     1      49.041  80.392  41.963  0.00  0.00    -0.210 OA
ENDROOT
BRANCH   1  27
ATOM     26  C   UNL     1      47.036  82.117  43.452  0.00  0.00    +0.004 C 
ATOM     27  C   UNL     1      48.075  82.548  42.486  0.00  0.00    +0.046 C 
ENDBRANCH   1  27
BRANCH  19  28
ATOM     28  C   UNL     1      40.287  76.040  38.814  0.00  0.00    +0.102 C 
BRANCH  28  29
ATOM     29  N   UNL     1      40.582  75.388  37.595  0.00  0.00    -0.266 NA
ATOM     30  C   UNL     1      41.785  75.737  36.910  0.00  0.00    +0.090 C 
ATOM     31  C   UNL     1      40.489  73.952  37.612  0.00  0.00    +0.090 C 
ENDBRANCH  28  29
ENDBRANCH  19  28
TORSDOF 3
REMARK  Name = Topetecan
REMARK  3 active torsions:
REMARK  status: ('A' for Active; 'I' for Inactive)
REMARK    1  A    between atoms: C_2  and  C_3
REMARK    2  A    between atoms: C_21  and  C_22
REMARK    3  A    between atoms: C_22  and  N_23
REMARK                            x       y       z     vdW  Elec       q    Type
REMARK                         _______ _______ _______ _____ _____    ______ ____
ROOT
ATOM      1 CL   UNL     1      44.717  79.240  40.247  0.00  0.00    +0.000 Cl
ENDROOT
TORSDOF 0
