REMARK  Name = Topiramate
REMARK  3 active torsions:
REMARK  status: ('A' for Active; 'I' for Inactive)
REMARK    1  A    between atoms: C_7  and  C_16
REMARK    2  A    between atoms: C_16  and  O_17
REMARK    3  A    between atoms: O_17  and  S_18
REMARK                            x       y       z     vdW  Elec       q    Type
REMARK                         _______ _______ _______ _____ _____    ______ ____
ROOT
ATOM      1  C   UNL     1      43.792  80.823  40.068  0.00  0.00    +0.061 C 
ATOM      2  C   UNL     1      44.921  79.829  40.288  0.00  0.00    +0.187 C 
ATOM      3  O   UNL     1      45.795  79.838  39.230  0.00  0.00    -0.332 OA
ATOM      4  C   UNL     1      46.949  80.523  39.602  0.00  0.00    +0.177 C 
ATOM      5  C   UNL     1      47.045  81.819  38.871  0.00  0.00    +0.177 C 
ATOM      6  O   UNL     1      46.877  82.965  39.585  0.00  0.00    -0.328 OA
ATOM      7  C   UNL     1      47.644  82.920  40.722  0.00  0.00    +0.247 C 
ATOM      8  C   UNL     1      46.938  81.936  41.637  0.00  0.00    +0.201 C 
ATOM      9  C   UNL     1      46.869  80.576  41.076  0.00  0.00    +0.179 C 
ATOM     10  O   UNL     1      45.623  80.041  41.439  0.00  0.00    -0.332 OA
ATOM     11  O   UNL     1      47.618  82.148  42.790  0.00  0.00    -0.329 OA
ATOM     12  C   UNL     1      47.575  83.562  42.861  0.00  0.00    +0.190 C 
ATOM     13  O   UNL     1      47.595  84.015  41.542  0.00  0.00    -0.310 OA
ATOM     14  C   UNL     1      48.656  84.129  43.716  0.00  0.00    +0.061 C 
ATOM     15  C   UNL     1      46.237  83.897  43.518  0.00  0.00    +0.061 C 
ATOM     16  C   UNL     1      44.234  78.463  40.436  0.00  0.00    +0.061 C 
ENDROOT
BRANCH   7  17
ATOM     17  C   UNL     1      49.080  82.569  40.484  0.00  0.00    +0.234 C 
BRANCH  17  18
ATOM     18  O   UNL     1      49.924  83.055  41.463  0.00  0.00    -0.204 OA
BRANCH  18  19
ATOM     19  S   UNL     1      51.404  82.334  41.516  0.00  0.00    +0.187 S 
ATOM     20  O   UNL     1      51.356  80.850  41.294  0.00  0.00    -0.127 OA
ATOM     21  O   UNL     1      52.336  82.887  40.450  0.00  0.00    -0.127 OA
ATOM     22  N   UNL     1      52.199  82.582  43.030  0.00  0.00    +0.063 NA
ENDBRANCH  18  19
ENDBRANCH  17  18
ENDBRANCH   7  17
TORSDOF 3
