REMARK  Name = Topotecan
REMARK  3 active torsions:
REMARK  status: ('A' for Active; 'I' for Inactive)
REMARK    1  A    between atoms: C_2  and  C_3
REMARK    2  A    between atoms: C_21  and  C_22
REMARK    3  A    between atoms: C_22  and  N_23
REMARK                            x       y       z     vdW  Elec       q    Type
REMARK                         _______ _______ _______ _____ _____    ______ ____
ROOT
ATOM      1  C   UNL     1      48.374  81.326  41.495  0.00  0.00    +0.233 C 
ATOM      2  C   UNL     1      47.230  81.129  40.574  0.00  0.00    +0.021 A 
ATOM      3  C   UNL     1      46.968  81.921  39.487  0.00  0.00    +0.076 A 
ATOM      4  C   UNL     1      47.835  83.049  39.151  0.00  0.00    +0.240 C 
ATOM      5  O   UNL     1      48.903  83.231  39.990  0.00  0.00    -0.441 OA
ATOM      6  C   UNL     1      49.132  82.538  41.154  0.00  0.00    +0.349 C 
ATOM      7  O   UNL     1      50.009  82.952  41.945  0.00  0.00    -0.247 OA
ATOM      8  C   UNL     1      45.850  81.650  38.675  0.00  0.00    +0.260 A 
ATOM      9  O   UNL     1      45.608  82.374  37.679  0.00  0.00    -0.267 OA
ATOM     10  N   UNL     1      45.025  80.627  38.939  0.00  0.00    -0.290 N 
ATOM     11  C   UNL     1      43.813  80.144  38.257  0.00  0.00    +0.137 C 
ATOM     12  C   UNL     1      43.395  78.999  39.063  0.00  0.00    +0.020 A 
ATOM     13  C   UNL     1      42.338  78.113  38.974  0.00  0.00    +0.000 A 
ATOM     14  C   UNL     1      42.167  77.091  39.888  0.00  0.00    +0.018 A 
ATOM     15  C   UNL     1      43.078  76.947  40.929  0.00  0.00    +0.081 A 
ATOM     16  C   UNL     1      42.901  75.950  41.865  0.00  0.00    +0.022 A 
ATOM     17  C   UNL     1      41.833  75.079  41.801  0.00  0.00    +0.043 A 
ATOM     18  C   UNL     1      40.933  75.200  40.793  0.00  0.00    +0.193 A 
ATOM     19  C   UNL     1      41.088  76.199  39.829  0.00  0.00    +0.034 A 
ATOM     20  O   UNL     1      39.820  74.342  40.673  0.00  0.00    -0.287 OA
ATOM     21  N   UNL     1      44.107  77.819  41.007  0.00  0.00    -0.244 NA
ATOM     22  C   UNL     1      44.272  78.818  40.108  0.00  0.00    +0.095 A 
ATOM     23  C   UNL     1      45.294  79.866  40.002  0.00  0.00    +0.080 A 
ATOM     24  C   UNL     1      46.373  80.082  40.834  0.00  0.00    +0.017 A 
ATOM     25  O   UNL     1      49.253  80.230  41.349  0.00  0.00    -0.210 OA
ENDROOT
BRANCH   1  27
ATOM     26  C   UNL     1      47.468  82.792  43.241  0.00  0.00    +0.004 C 
ATOM     27  C   UNL     1      47.940  81.380  42.938  0.00  0.00    +0.046 C 
ENDBRANCH   1  27
BRANCH  19  28
ATOM     28  C   UNL     1      40.173  76.298  38.683  0.00  0.00    +0.102 C 
BRANCH  28  29
ATOM     29  N   UNL     1      40.367  75.378  37.617  0.00  0.00    -0.266 NA
ATOM     30  C   UNL     1      39.907  75.951  36.326  0.00  0.00    +0.090 C 
ATOM     31  C   UNL     1      39.663  74.121  37.698  0.00  0.00    +0.090 C 
ENDBRANCH  28  29
ENDBRANCH  19  28
TORSDOF 3
