REMARK  Name = Torasemide
REMARK  5 active torsions:
REMARK  status: ('A' for Active; 'I' for Inactive)
REMARK    1  A    between atoms: C_4  and  N_8
REMARK    2  A    between atoms: N_8  and  C_9
REMARK    3  A    between atoms: C_10  and  S_15
REMARK    4  A    between atoms: S_15  and  N_18
REMARK    5  A    between atoms: N_21  and  C_22
REMARK                            x       y       z     vdW  Elec       q    Type
REMARK                         _______ _______ _______ _____ _____    ______ ____
ROOT
ATOM      1  C   UNL     1      46.659  81.299  40.624  0.00  0.00    +0.092 A 
ATOM      2  C   UNL     1      45.817  80.411  40.022  0.00  0.00    +0.161 A 
ATOM      3  C   UNL     1      45.199  80.772  38.806  0.00  0.00    +0.120 A 
ATOM      4  N   UNL     1      45.421  81.962  38.233  0.00  0.00    -0.241 NA
ATOM      5  C   UNL     1      46.254  82.844  38.822  0.00  0.00    +0.100 A 
ATOM      6  C   UNL     1      46.874  82.544  39.995  0.00  0.00    +0.039 A 
ENDROOT
BRANCH   2   7
ATOM      7  S   UNL     1      45.541  78.825  40.686  0.00  0.00    +0.099 S 
ATOM      8  O   UNL     1      44.817  78.819  41.988  0.00  0.00    -0.148 OA
ATOM      9  O   UNL     1      46.832  78.078  40.890  0.00  0.00    -0.148 OA
BRANCH   7  10
ATOM     10  N   UNL     1      44.613  77.931  39.499  0.00  0.00    -0.040 NA
ATOM     11  C   UNL     1      43.210  78.037  39.387  0.00  0.00    +0.360 C 
ATOM     12  O   UNL     1      42.615  78.811  40.168  0.00  0.00    -0.247 OA
ATOM     13  N   UNL     1      42.441  77.313  38.436  0.00  0.00    -0.188 NA
BRANCH  13  14
ATOM     14  C   UNL     1      41.003  77.411  38.351  0.00  0.00    +0.097 C 
ATOM     15  C   UNL     1      40.494  77.110  36.958  0.00  0.00    +0.023 C 
ATOM     16  C   UNL     1      40.312  76.541  39.380  0.00  0.00    +0.023 C 
ENDBRANCH  13  14
ENDBRANCH   7  10
ENDBRANCH   2   7
BRANCH   1  17
ATOM     17  N   UNL     1      47.351  80.995  41.814  0.00  0.00    -0.211 NA
BRANCH  17  21
ATOM     18  C   UNL     1      48.377  85.426  43.689  0.00  0.00    +0.031 C 
ATOM     19  C   UNL     1      48.859  84.092  43.241  0.00  0.00    -0.021 A 
ATOM     20  C   UNL     1      47.946  83.187  42.758  0.00  0.00    +0.012 A 
ATOM     21  C   UNL     1      48.315  81.910  42.317  0.00  0.00    +0.070 A 
ATOM     22  C   UNL     1      49.676  81.593  42.391  0.00  0.00    +0.016 A 
ATOM     23  C   UNL     1      50.612  82.485  42.872  0.00  0.00    +0.001 A 
ATOM     24  C   UNL     1      50.193  83.736  43.297  0.00  0.00    -0.004 A 
ENDBRANCH  17  21
ENDBRANCH   1  17
TORSDOF 5
