REMARK  Name = TP-434
REMARK  5 active torsions:
REMARK  status: ('A' for Active; 'I' for Inactive)
REMARK    1  A    between atoms: N_2  and  C_4
REMARK    2  A    between atoms: C_12  and  N_31
REMARK    3  A    between atoms: C_21  and  C_24
REMARK    4  A    between atoms: C_32  and  C_34
REMARK    5  A    between atoms: C_34  and  N_35
REMARK                            x       y       z     vdW  Elec       q    Type
REMARK                         _______ _______ _______ _____ _____    ______ ____
ROOT
ATOM      1  C   UNL     1      49.374  81.644  42.987  0.00  0.00    +0.124 C 
ATOM      2  C   UNL     1      48.610  81.235  41.775  0.00  0.00    +0.065 C 
ATOM      3  C   UNL     1      47.719  80.078  41.849  0.00  0.00    +0.010 C 
ATOM      4  C   UNL     1      46.244  80.417  41.650  0.00  0.00    +0.033 C 
ATOM      5  C   UNL     1      45.453  79.163  41.776  0.00  0.00    +0.033 C 
ATOM      6  C   UNL     1      44.508  78.872  40.695  0.00  0.00    +0.012 A 
ATOM      7  C   UNL     1      43.701  77.724  40.789  0.00  0.00    +0.138 A 
ATOM      8  C   UNL     1      42.829  77.423  39.779  0.00  0.00    +0.049 A 
ATOM      9  C   UNL     1      42.694  78.219  38.624  0.00  0.00    +0.115 A 
ATOM     10  C   UNL     1      43.484  79.324  38.560  0.00  0.00    +0.214 A 
ATOM     11  C   UNL     1      44.401  79.665  39.591  0.00  0.00    +0.077 A 
ATOM     12  C   UNL     1      45.216  80.854  39.483  0.00  0.00    +0.197 C 
ATOM     13  C   UNL     1      46.054  81.189  40.423  0.00  0.00    +0.054 C 
ATOM     14  C   UNL     1      46.916  82.390  40.308  0.00  0.00    +0.207 C 
ATOM     15  O   UNL     1      46.668  83.227  39.434  0.00  0.00    -0.289 OA
ATOM     16  C   UNL     1      48.020  82.527  41.236  0.00  0.00    +0.237 C 
ATOM     17  C   UNL     1      49.159  83.314  40.694  0.00  0.00    +0.215 C 
ATOM     18  C   UNL     1      50.324  83.232  41.304  0.00  0.00    +0.130 C 
ATOM     19  C   UNL     1      50.548  82.404  42.486  0.00  0.00    +0.195 C 
ATOM     20  O   UNL     1      51.689  82.392  42.984  0.00  0.00    -0.290 OA
ATOM     21  O   UNL     1      48.933  84.093  39.577  0.00  0.00    -0.288 OA
ATOM     22  O   UNL     1      47.547  83.312  42.318  0.00  0.00    -0.210 OA
ATOM     23  O   UNL     1      45.121  81.678  38.356  0.00  0.00    -0.287 OA
ATOM     24  O   UNL     1      43.483  80.224  37.510  0.00  0.00    -0.285 OA
ATOM     25  F   UNL     1      43.823  76.949  41.897  0.00  0.00    -0.204 F 
ENDROOT
BRANCH   1  27
ATOM     26  C   UNL     1      50.335  79.498  43.428  0.00  0.00    +0.090 C 
ATOM     27  N   UNL     1      49.638  80.666  43.977  0.00  0.00    -0.265 NA
ATOM     28  C   UNL     1      50.651  81.254  44.886  0.00  0.00    +0.090 C 
ENDBRANCH   1  27
BRANCH  18  29
ATOM     29  C   UNL     1      51.417  84.026  40.728  0.00  0.00    +0.290 C 
ATOM     30  O   UNL     1      52.624  83.776  40.935  0.00  0.00    -0.266 OA
ATOM     31  N   UNL     1      51.049  85.126  39.901  0.00  0.00    -0.084 NA
ENDBRANCH  18  29
BRANCH   9  32
ATOM     32  N   UNL     1      41.756  77.863  37.638  0.00  0.00    -0.175 NA
ATOM     33  C   UNL     1      40.722  76.915  37.724  0.00  0.00    +0.262 C 
ATOM     34  O   UNL     1      40.506  76.274  38.768  0.00  0.00    -0.271 OA
BRANCH  33  35
ATOM     35  C   UNL     1      39.852  76.657  36.553  0.00  0.00    +0.161 C 
BRANCH  35  36
ATOM     36  N   UNL     1      39.031  75.506  36.632  0.00  0.00    -0.265 NA
ATOM     37  C   UNL     1      37.737  75.581  36.056  0.00  0.00    +0.073 C 
ATOM     38  C   UNL     1      37.876  74.871  34.730  0.00  0.00    +0.019 C 
ATOM     39  C   UNL     1      38.892  73.805  35.000  0.00  0.00    +0.019 C 
ATOM     40  C   UNL     1      39.705  74.355  36.141  0.00  0.00    +0.073 C 
ENDBRANCH  35  36
ENDBRANCH  33  35
ENDBRANCH   9  32
TORSDOF 5
