REMARK  Name = Trabectedin
REMARK  4 active torsions:
REMARK  status: ('A' for Active; 'I' for Inactive)
REMARK    1  A    between atoms: C_10  and  O_46
REMARK    2  A    between atoms: C_32  and  O_40
REMARK    3  A    between atoms: O_46  and  C_47
REMARK    4  A    between atoms: C_51  and  O_52
REMARK                            x       y       z     vdW  Elec       q    Type
REMARK                         _______ _______ _______ _____ _____    ______ ____
ROOT
ATOM      1  C   UNL     1      52.411  81.947  42.056  0.00  0.00    +0.034 C 
ATOM      2  C   UNL     1      50.961  81.672  41.925  0.00  0.00    +0.015 A 
ATOM      3  C   UNL     1      50.358  81.732  40.685  0.00  0.00    -0.006 A 
ATOM      4  C   UNL     1      49.006  81.483  40.519  0.00  0.00    -0.020 A 
ATOM      5  C   UNL     1      48.232  81.164  41.624  0.00  0.00    +0.032 A 
ATOM      6  C   UNL     1      46.803  80.913  41.381  0.00  0.00    +0.099 C 
ATOM      7  C   UNL     1      46.512  79.549  40.779  0.00  0.00    +0.093 C 
ATOM      8  C   UNL     1      45.759  78.702  41.774  0.00  0.00    +0.089 C 
ATOM      9  C   UNL     1      44.408  78.310  41.261  0.00  0.00    +0.024 A 
ATOM     10  C   UNL     1      43.412  78.002  42.196  0.00  0.00    +0.144 A 
ATOM     11  C   UNL     1      42.161  77.638  41.760  0.00  0.00    +0.050 A 
ATOM     12  C   UNL     1      41.875  77.572  40.416  0.00  0.00    +0.175 A 
ATOM     13  C   UNL     1      42.835  77.868  39.494  0.00  0.00    +0.173 A 
ATOM     14  C   UNL     1      44.090  78.234  39.937  0.00  0.00    +0.033 A 
ATOM     15  C   UNL     1      45.183  78.567  38.980  0.00  0.00    +0.129 C 
ATOM     16  N   UNL     1      45.996  79.576  39.488  0.00  0.00    -0.240 NA
ATOM     17  C   UNL     1      46.126  80.672  38.639  0.00  0.00    +0.228 C 
ATOM     18  C   UNL     1      46.879  81.851  39.253  0.00  0.00    +0.109 C 
ATOM     19  C   UNL     1      48.334  81.537  39.210  0.00  0.00    +0.046 C 
ATOM     20  N   UNL     1      46.313  81.994  40.566  0.00  0.00    -0.265 NA
ATOM     21  C   UNL     1      46.596  83.239  41.194  0.00  0.00    +0.090 C 
ATOM     22  O   UNL     1      44.879  81.134  38.230  0.00  0.00    -0.203 OA
ATOM     23  C   UNL     1      45.962  77.327  38.592  0.00  0.00    +0.229 C 
ATOM     24  O   UNL     1      45.435  76.244  39.272  0.00  0.00    -0.445 OA
ATOM     25  C   UNL     1      45.865  75.579  40.364  0.00  0.00    +0.336 C 
ATOM     26  O   UNL     1      45.048  75.144  41.209  0.00  0.00    -0.248 OA
ATOM     27  C   UNL     1      47.307  75.341  40.597  0.00  0.00    +0.177 C 
ATOM     28  C   UNL     1      47.829  76.510  41.375  0.00  0.00    +0.089 C 
ATOM     29  S   UNL     1      46.593  77.274  42.370  0.00  0.00    -0.133 S 
ATOM     30  C   UNL     1      47.436  74.034  41.283  0.00  0.00    +0.002 A 
ATOM     31  C   UNL     1      47.795  73.889  42.604  0.00  0.00    +0.037 A 
ATOM     32  C   UNL     1      47.900  72.635  43.200  0.00  0.00    +0.177 A 
ATOM     33  C   UNL     1      47.625  71.543  42.405  0.00  0.00    +0.229 A 
ATOM     34  C   UNL     1      47.263  71.679  41.080  0.00  0.00    +0.041 A 
ATOM     35  C   UNL     1      47.161  72.944  40.487  0.00  0.00    -0.020 A 
ATOM     36  C   UNL     1      46.761  73.059  39.048  0.00  0.00    +0.045 C 
ATOM     37  C   UNL     1      47.400  74.254  38.431  0.00  0.00    +0.094 C 
ATOM     38  N   UNL     1      47.963  75.195  39.317  0.00  0.00    -0.205 NA
ATOM     39  O   UNL     1      47.719  70.274  42.967  0.00  0.00    -0.283 OA
ATOM     40  O   UNL     1      42.329  77.736  38.215  0.00  0.00    -0.435 OA
ATOM     41  C   UNL     1      40.932  77.641  38.339  0.00  0.00    +0.429 C 
ATOM     42  O   UNL     1      40.739  77.246  39.690  0.00  0.00    -0.435 OA
ATOM     43  C   UNL     1      41.105  77.311  42.760  0.00  0.00    +0.038 C 
ATOM     44  C   UNL     1      48.848  81.109  42.847  0.00  0.00    +0.226 A 
ATOM     45  C   UNL     1      50.196  81.356  43.022  0.00  0.00    +0.173 A 
ATOM     46  O   UNL     1      48.089  80.791  43.963  0.00  0.00    -0.284 OA
ENDROOT
BRANCH  32  47
ATOM     47  O   UNL     1      48.262  72.483  44.532  0.00  0.00    -0.468 OA
ATOM     48  C   UNL     1      48.476  73.647  45.315  0.00  0.00    +0.253 C 
ENDBRANCH  32  47
BRANCH  45  49
ATOM     49  O   UNL     1      50.808  81.299  44.258  0.00  0.00    -0.469 OA
ATOM     50  C   UNL     1      50.994  82.435  45.081  0.00  0.00    +0.253 C 
ENDBRANCH  45  49
BRANCH  10  51
ATOM     51  O   UNL     1      43.704  78.071  43.552  0.00  0.00    -0.425 OA
BRANCH  51  52
ATOM     52  C   UNL     1      43.832  79.273  44.227  0.00  0.00    +0.322 C 
ATOM     53  O   UNL     1      43.995  80.306  43.520  0.00  0.00    -0.250 OA
ATOM     54  C   UNL     1      43.788  79.411  45.688  0.00  0.00    +0.122 C 
ENDBRANCH  51  52
ENDBRANCH  10  51
TORSDOF 4
