REMARK  Name = Trametinib
REMARK  5 active torsions:
REMARK  status: ('A' for Active; 'I' for Inactive)
REMARK    1  A    between atoms: C_5  and  N_10
REMARK    2  A    between atoms: N_10  and  C_11
REMARK    3  A    between atoms: N_21  and  C_35
REMARK    4  A    between atoms: N_24  and  C_25
REMARK    5  A    between atoms: C_29  and  N_31
REMARK                            x       y       z     vdW  Elec       q    Type
REMARK                         _______ _______ _______ _____ _____    ______ ____
ROOT
ATOM      1  C   UNL     1      43.050  79.971  37.830  0.00  0.00    +0.038 C 
ATOM      2  C   UNL     1      44.129  79.960  38.817  0.00  0.00    +0.051 A 
ATOM      3  C   UNL     1      44.236  79.078  39.881  0.00  0.00    +0.076 A 
ATOM      4  C   UNL     1      45.331  79.150  40.748  0.00  0.00    +0.104 A 
ATOM      5  C   UNL     1      46.341  80.062  40.622  0.00  0.00    +0.141 A 
ATOM      6  N   UNL     1      46.225  80.931  39.563  0.00  0.00    -0.281 N 
ATOM      7  C   UNL     1      45.193  80.870  38.736  0.00  0.00    +0.259 A 
ATOM      8  O   UNL     1      45.153  81.701  37.786  0.00  0.00    -0.267 OA
ATOM      9  C   UNL     1      47.306  81.879  39.367  0.00  0.00    +0.135 C 
ATOM     10  C   UNL     1      45.386  78.227  41.781  0.00  0.00    +0.268 A 
ATOM     11  O   UNL     1      46.334  78.231  42.582  0.00  0.00    -0.267 OA
ATOM     12  N   UNL     1      44.437  77.285  41.975  0.00  0.00    -0.250 N 
ATOM     13  C   UNL     1      43.432  77.276  41.123  0.00  0.00    +0.338 A 
ATOM     14  O   UNL     1      42.528  76.398  41.291  0.00  0.00    -0.246 OA
ATOM     15  N   UNL     1      43.302  78.163  40.062  0.00  0.00    -0.260 N 
ENDROOT
BRANCH  15  16
ATOM     16  C   UNL     1      42.139  77.988  39.291  0.00  0.00    +0.069 A 
ATOM     17  C   UNL     1      41.120  78.878  39.448  0.00  0.00    +0.018 A 
ATOM     18  C   UNL     1      39.914  78.716  38.806  0.00  0.00    +0.003 A 
ATOM     19  C   UNL     1      39.749  77.621  37.988  0.00  0.00    +0.017 A 
ATOM     20  C   UNL     1      40.757  76.714  37.813  0.00  0.00    +0.075 A 
ATOM     21  C   UNL     1      41.968  76.927  38.492  0.00  0.00    +0.034 A 
BRANCH  20  22
ATOM     22  N   UNL     1      40.648  75.550  36.988  0.00  0.00    -0.179 NA
ATOM     23  C   UNL     1      39.489  75.083  36.346  0.00  0.00    +0.246 C 
ATOM     24  O   UNL     1      38.409  75.701  36.424  0.00  0.00    -0.273 OA
ATOM     25  C   UNL     1      39.492  73.811  35.532  0.00  0.00    +0.097 C 
ENDBRANCH  20  22
ENDBRANCH  15  16
BRANCH  12  26
ATOM     26  C   UNL     1      44.572  76.352  43.086  0.00  0.00    +0.093 C 
ATOM     27  C   UNL     1      45.777  75.546  43.300  0.00  0.00    +0.025 C 
ATOM     28  C   UNL     1      45.438  76.699  44.241  0.00  0.00    +0.025 C 
ENDBRANCH  12  26
BRANCH   5  29
ATOM     29  N   UNL     1      47.462  80.221  41.436  0.00  0.00    -0.193 NA
BRANCH  29  30
ATOM     30  C   UNL     1      48.012  81.371  42.041  0.00  0.00    +0.099 A 
ATOM     31  C   UNL     1      49.361  81.564  42.275  0.00  0.00    +0.156 A 
ATOM     32  C   UNL     1      49.853  82.732  42.850  0.00  0.00    +0.037 A 
ATOM     33  C   UNL     1      49.031  83.771  43.222  0.00  0.00    +0.032 A 
ATOM     34  C   UNL     1      47.687  83.591  42.995  0.00  0.00    +0.007 A 
ATOM     35  C   UNL     1      47.194  82.442  42.428  0.00  0.00    +0.019 A 
ATOM     36  I   UNL     1      49.798  85.529  44.085  0.00  0.00    -0.042 I 
ATOM     37  F   UNL     1      50.251  80.611  41.925  0.00  0.00    -0.203 F 
ENDBRANCH  29  30
ENDBRANCH   5  29
TORSDOF 5
