REMARK  Name = Trandolapril
REMARK  10 active torsions:
REMARK  status: ('A' for Active; 'I' for Inactive)
REMARK    1  A    between atoms: C_2  and  O_3
REMARK    2  A    between atoms: O_3  and  C_4
REMARK    3  A    between atoms: C_4  and  C_6
REMARK    4  A    between atoms: C_6  and  C_7
REMARK    5  A    between atoms: C_6  and  N_15
REMARK    6  A    between atoms: C_7  and  C_8
REMARK    7  A    between atoms: C_8  and  C_9
REMARK    8  A    between atoms: N_15  and  CA_16
REMARK    9  A    between atoms: CA_16  and  C_18
REMARK   10  A    between atoms: C_28  and  C_29
REMARK                            x       y       z     vdW  Elec       q    Type
REMARK                         _______ _______ _______ _____ _____    ______ ____
ROOT
ATOM      1  CA  ALA A   1      46.261  80.741  39.116  0.00  0.00    +0.149 C 
ATOM      2  CB  ALA A   1      46.677  81.843  38.167  0.00  0.00    +0.029 C 
ENDROOT
BRANCH   1   3
ATOM      3  C   ALA A   1      44.811  80.446  38.972  0.00  0.00    +0.242 C 
ATOM      4  O   ALA A   1      44.136  81.406  38.425  0.00  0.00    -0.273 OA
ATOM      5  N   UNK A   2      44.175  79.260  39.367  0.00  0.00    -0.272 N 
ATOM      6  C   UNK A   2      44.641  78.023  39.809  0.00  0.00    +0.076 C 
ATOM      7  C   UNK A   2      45.960  77.961  40.540  0.00  0.00    +0.020 C 
ATOM      8  C   UNK A   2      45.924  76.626  41.322  0.00  0.00    +0.002 C 
ATOM      9  C   UNK A   2      44.996  75.629  40.668  0.00  0.00    +0.000 C 
ATOM     10  C   UNK A   2      43.538  76.093  40.794  0.00  0.00    +0.002 C 
ATOM     11  C   UNK A   2      43.618  77.603  40.881  0.00  0.00    +0.020 C 
ATOM     12  C   UNK A   2      42.383  78.301  40.474  0.00  0.00    +0.033 C 
ATOM     13  C   UNK A   2      42.707  79.153  39.284  0.00  0.00    +0.179 C 
BRANCH  13  14
ATOM     14  C   UNK A   2      42.331  78.383  38.058  0.00  0.00    +0.382 C 
ATOM     15  O   UNK A   2      41.121  78.227  37.761  0.00  0.00    -0.244 OA
ATOM     16  O   UNK A   2      43.265  77.817  37.208  0.00  0.00    -0.244 OA
ENDBRANCH  13  14
ENDBRANCH   1   3
BRANCH   1  17
ATOM     17  N   ALA A   1      46.528  81.120  40.462  0.00  0.00    -0.201 NA
BRANCH  17  18
ATOM     18  C   UNK A   0      47.858  81.362  40.877  0.00  0.00    +0.172 C 
BRANCH  18  19
ATOM     19  C   UNK A   0      48.537  80.001  40.956  0.00  0.00    +0.333 C 
ATOM     20  O   UNK A   0      47.837  79.033  41.297  0.00  0.00    -0.249 OA
BRANCH  19  21
ATOM     21  O   UNK A   0      49.865  79.824  40.667  0.00  0.00    -0.448 OA
BRANCH  21  23
ATOM     22  C   UNK A   0      50.590  77.812  39.553  0.00  0.00    +0.051 C 
ATOM     23  C   UNK A   0      50.530  78.589  40.843  0.00  0.00    +0.209 C 
ENDBRANCH  21  23
ENDBRANCH  19  21
ENDBRANCH  18  19
BRANCH  18  24
ATOM     24  C   UNK A   0      47.873  81.915  42.310  0.00  0.00    +0.033 C 
BRANCH  24  25
ATOM     25  C   UNK A   0      49.281  82.237  42.686  0.00  0.00    +0.028 C 
BRANCH  25  26
ATOM     26  C   UNK A   0      49.405  83.603  43.279  0.00  0.00    -0.022 A 
ATOM     27  C   UNK A   0      50.644  84.067  43.656  0.00  0.00    -0.004 A 
ATOM     28  C   UNK A   0      50.845  85.307  44.207  0.00  0.00    -0.000 A 
ATOM     29  C   UNK A   0      49.746  86.135  44.394  0.00  0.00    -0.000 A 
ATOM     30  C   UNK A   0      48.489  85.702  44.027  0.00  0.00    -0.000 A 
ATOM     31  C   UNK A   0      48.322  84.435  43.470  0.00  0.00    -0.004 A 
ENDBRANCH  25  26
ENDBRANCH  24  25
ENDBRANCH  18  24
ENDBRANCH  17  18
ENDBRANCH   1  17
TORSDOF 10
