REMARK  Name = Travoprost
REMARK  14 active torsions:
REMARK  status: ('A' for Active; 'I' for Inactive)
REMARK    1  A    between atoms: C_2  and  O_4
REMARK    2  A    between atoms: O_4  and  C_5
REMARK    3  A    between atoms: C_5  and  C_7
REMARK    4  A    between atoms: C_7  and  C_8
REMARK    5  A    between atoms: C_8  and  C_9
REMARK    6  A    between atoms: C_9  and  C_10
REMARK    7  A    between atoms: C_11  and  C_12
REMARK    8  A    between atoms: C_12  and  C_13
REMARK    9  A    between atoms: C_17  and  C_18
REMARK   10  A    between atoms: C_19  and  C_20
REMARK   11  A    between atoms: C_20  and  C_21
REMARK   12  A    between atoms: C_21  and  O_22
REMARK   13  A    between atoms: O_22  and  C_23
REMARK   14  A    between atoms: C_27  and  C_29
REMARK                            x       y       z     vdW  Elec       q    Type
REMARK                         _______ _______ _______ _____ _____    ______ ____
ROOT
ATOM      1  C   UNL     1      43.817  77.510  39.916  0.00  0.00    +0.041 C 
ATOM      2  C   UNL     1      43.080  77.832  41.172  0.00  0.00    +0.155 C 
ATOM      3  C   UNL     1      44.094  77.601  42.260  0.00  0.00    +0.066 C 
ATOM      4  C   UNL     1      45.430  77.828  41.606  0.00  0.00    +0.159 C 
ATOM      5  C   UNL     1      45.143  78.211  40.179  0.00  0.00    +0.055 C 
ATOM      6  O   UNL     1      46.183  76.634  41.600  0.00  0.00    -0.223 OA
ATOM      7  O   UNL     1      41.936  77.055  41.361  0.00  0.00    -0.223 OA
ENDROOT
BRANCH   5   8
ATOM      8  C   UNL     1      45.129  79.641  39.916  0.00  0.00    -0.026 C 
ATOM      9  C   UNL     1      45.815  80.331  39.032  0.00  0.00    +0.005 C 
BRANCH   9  10
ATOM     10  C   UNL     1      45.840  81.838  38.975  0.00  0.00    +0.217 C 
ATOM     11  O   UNL     1      44.597  82.383  38.799  0.00  0.00    -0.214 OA
BRANCH  10  12
ATOM     12  C   UNL     1      46.554  82.407  40.166  0.00  0.00    +0.243 C 
BRANCH  12  13
ATOM     13  O   UNL     1      47.822  82.074  40.409  0.00  0.00    -0.472 OA
BRANCH  13  14
ATOM     14  C   UNL     1      48.841  82.428  41.202  0.00  0.00    +0.139 A 
ATOM     15  C   UNL     1      49.992  81.585  41.229  0.00  0.00    +0.037 A 
ATOM     16  C   UNL     1      51.044  81.918  42.020  0.00  0.00    +0.003 A 
ATOM     17  C   UNL     1      51.049  83.055  42.812  0.00  0.00    +0.004 A 
ATOM     18  C   UNL     1      49.959  83.888  42.810  0.00  0.00    +0.074 A 
ATOM     19  C   UNL     1      48.885  83.548  42.002  0.00  0.00    +0.041 A 
BRANCH  18  20
ATOM     20  C   UNL     1      49.942  85.104  43.646  0.00  0.00    +0.419 C 
ATOM     21  F   UNL     1      51.203  85.457  44.078  0.00  0.00    -0.166 F 
ATOM     22  F   UNL     1      49.180  84.887  44.802  0.00  0.00    -0.166 F 
ATOM     23  F   UNL     1      49.316  86.123  42.950  0.00  0.00    -0.166 F 
ENDBRANCH  18  20
ENDBRANCH  13  14
ENDBRANCH  12  13
ENDBRANCH  10  12
ENDBRANCH   9  10
ENDBRANCH   5   8
BRANCH   1  24
ATOM     24  C   UNL     1      43.175  77.948  38.647  0.00  0.00    +0.029 C 
BRANCH  24  26
ATOM     25  C   UNL     1      40.722  77.666  38.252  0.00  0.00    -0.031 C 
ATOM     26  C   UNL     1      41.931  77.197  38.386  0.00  0.00    -0.031 C 
BRANCH  25  27
ATOM     27  C   UNL     1      39.768  77.419  37.148  0.00  0.00    +0.026 C 
BRANCH  27  28
ATOM     28  C   UNL     1      39.555  75.911  37.044  0.00  0.00    +0.016 C 
BRANCH  28  29
ATOM     29  C   UNL     1      38.728  75.499  35.879  0.00  0.00    +0.110 C 
BRANCH  29  30
ATOM     30  C   UNL     1      38.542  74.055  35.714  0.00  0.00    +0.317 C 
ATOM     31  O   UNL     1      39.035  73.192  36.469  0.00  0.00    -0.250 OA
BRANCH  30  32
ATOM     32  O   UNL     1      37.767  73.556  34.650  0.00  0.00    -0.452 OA
BRANCH  32  34
ATOM     33  C   UNL     1      36.589  71.565  33.927  0.00  0.00    +0.047 C 
ATOM     34  C   UNL     1      37.924  72.235  34.180  0.00  0.00    +0.169 C 
ATOM     35  C   UNL     1      38.635  72.332  32.846  0.00  0.00    +0.047 C 
ENDBRANCH  32  34
ENDBRANCH  30  32
ENDBRANCH  29  30
ENDBRANCH  28  29
ENDBRANCH  27  28
ENDBRANCH  25  27
ENDBRANCH  24  26
ENDBRANCH   1  24
TORSDOF 14
