REMARK  Name = Trazodone
REMARK  5 active torsions:
REMARK  status: ('A' for Active; 'I' for Inactive)
REMARK    1  A    between atoms: N_3  and  C_20
REMARK    2  A    between atoms: N_6  and  C_7
REMARK    3  A    between atoms: C_7  and  C_8
REMARK    4  A    between atoms: C_8  and  C_9
REMARK    5  A    between atoms: C_9  and  N_10
REMARK                            x       y       z     vdW  Elec       q    Type
REMARK                         _______ _______ _______ _____ _____    ______ ____
ROOT
ATOM      1  C   UNL     1      45.929  80.622  41.492  0.00  0.00    +0.094 C 
ATOM      2  C   UNL     1      47.286  80.862  42.127  0.00  0.00    +0.108 C 
ATOM      3  N   UNL     1      47.988  81.999  41.509  0.00  0.00    -0.305 N 
ATOM      4  C   UNL     1      47.934  81.977  40.060  0.00  0.00    +0.108 C 
ATOM      5  C   UNL     1      46.444  81.968  39.677  0.00  0.00    +0.094 C 
ATOM      6  N   UNL     1      45.971  80.669  40.071  0.00  0.00    -0.270 NA
ENDROOT
BRANCH   3   7
ATOM      7  C   UNL     1      48.657  82.995  42.269  0.00  0.00    +0.049 A 
ATOM      8  C   UNL     1      50.016  83.039  42.250  0.00  0.00    +0.026 A 
ATOM      9  C   UNL     1      50.680  84.007  43.003  0.00  0.00    +0.059 A 
ATOM     10  C   UNL     1      49.972  84.914  43.763  0.00  0.00    +0.011 A 
ATOM     11  C   UNL     1      48.580  84.831  43.752  0.00  0.00    +0.002 A 
ATOM     12  C   UNL     1      47.910  83.875  43.009  0.00  0.00    +0.015 A 
ATOM     13 CL   UNL     1      52.428  84.114  43.019  0.00  0.00    -0.082 Cl
ENDBRANCH   3   7
BRANCH   6  14
ATOM     14  C   UNL     1      44.791  80.211  39.438  0.00  0.00    +0.074 C 
BRANCH  14  15
ATOM     15  C   UNL     1      44.666  78.728  39.516  0.00  0.00    +0.044 C 
BRANCH  15  16
ATOM     16  C   UNL     1      43.435  78.283  40.279  0.00  0.00    +0.134 C 
BRANCH  16  17
ATOM     17  N   UNL     1      42.449  77.655  39.446  0.00  0.00    -0.201 N 
ATOM     18  C   UNL     1      41.988  76.407  39.639  0.00  0.00    +0.352 A 
ATOM     19  O   UNL     1      42.315  75.579  40.552  0.00  0.00    -0.244 OA
ATOM     20  N   UNL     1      41.084  76.117  38.700  0.00  0.00    -0.241 N 
ATOM     21  C   UNL     1      40.323  75.016  38.432  0.00  0.00    +0.086 A 
ATOM     22  C   UNL     1      39.445  74.972  37.373  0.00  0.00    +0.019 A 
ATOM     23  C   UNL     1      39.352  76.091  36.574  0.00  0.00    +0.005 A 
ATOM     24  C   UNL     1      40.109  77.223  36.816  0.00  0.00    +0.039 A 
ATOM     25  C   UNL     1      40.967  77.183  37.902  0.00  0.00    +0.171 A 
ATOM     26  N   UNL     1      41.813  78.110  38.381  0.00  0.00    -0.147 NA
ENDBRANCH  16  17
ENDBRANCH  15  16
ENDBRANCH  14  15
ENDBRANCH   6  14
TORSDOF 5
