REMARK  Name = Treprostinil
REMARK  10 active torsions:
REMARK  status: ('A' for Active; 'I' for Inactive)
REMARK    1  A    between atoms: C_2  and  C_3
REMARK    2  A    between atoms: C_3  and  C_4
REMARK    3  A    between atoms: C_4  and  C_5
REMARK    4  A    between atoms: C_5  and  C_6
REMARK    5  A    between atoms: C_6  and  C_7
REMARK    6  A    between atoms: C_7  and  C_8
REMARK    7  A    between atoms: C_8  and  C_9
REMARK    8  A    between atoms: C_18  and  O_22
REMARK    9  A    between atoms: O_22  and  C_23
REMARK   10  A    between atoms: C_23  and  C_24
REMARK                            x       y       z     vdW  Elec       q    Type
REMARK                         _______ _______ _______ _____ _____    ______ ____
ROOT
ATOM      1  C   UNL     1      44.747  78.824  40.406  0.00  0.00    +0.031 C 
ATOM      2  C   UNL     1      45.495  77.575  40.827  0.00  0.00    +0.152 C 
ATOM      3  C   UNL     1      44.419  76.837  41.593  0.00  0.00    +0.033 C 
ATOM      4  C   UNL     1      43.126  77.216  40.882  0.00  0.00    +0.007 C 
ATOM      5  C   UNL     1      43.474  78.275  39.897  0.00  0.00    +0.007 C 
ATOM      6  C   UNL     1      43.490  77.721  38.499  0.00  0.00    +0.026 C 
ATOM      7  C   UNL     1      42.102  77.250  38.274  0.00  0.00    -0.023 A 
ATOM      8  C   UNL     1      41.560  76.410  39.210  0.00  0.00    +0.008 A 
ATOM      9  C   UNL     1      42.401  76.024  40.364  0.00  0.00    +0.029 C 
ATOM     10  C   UNL     1      40.248  75.941  39.047  0.00  0.00    +0.135 A 
ATOM     11  C   UNL     1      39.482  76.302  37.970  0.00  0.00    +0.037 A 
ATOM     12  C   UNL     1      40.041  77.154  37.027  0.00  0.00    +0.003 A 
ATOM     13  C   UNL     1      41.350  77.621  37.189  0.00  0.00    -0.004 A 
ATOM     14  O   UNL     1      46.039  76.863  39.790  0.00  0.00    -0.223 OA
ENDROOT
BRANCH   1  15
ATOM     15  C   UNL     1      45.512  79.698  39.501  0.00  0.00    +0.005 C 
BRANCH  15  16
ATOM     16  C   UNL     1      45.308  81.167  39.753  0.00  0.00    +0.033 C 
BRANCH  16  17
ATOM     17  C   UNL     1      46.621  81.880  39.606  0.00  0.00    +0.152 C 
ATOM     18  O   UNL     1      46.470  82.866  38.633  0.00  0.00    -0.223 OA
BRANCH  17  19
ATOM     19  C   UNL     1      47.055  82.494  40.949  0.00  0.00    +0.033 C 
BRANCH  19  20
ATOM     20  C   UNL     1      48.495  82.886  40.783  0.00  0.00    +0.003 C 
BRANCH  20  21
ATOM     21  C   UNL     1      49.115  83.445  42.028  0.00  0.00    +0.000 C 
BRANCH  21  23
ATOM     22  C   UNL     1      51.170  84.309  43.166  0.00  0.00    +0.000 C 
ATOM     23  C   UNL     1      50.599  83.651  41.924  0.00  0.00    +0.000 C 
ENDBRANCH  21  23
ENDBRANCH  20  21
ENDBRANCH  19  20
ENDBRANCH  17  19
ENDBRANCH  16  17
ENDBRANCH  15  16
ENDBRANCH   1  15
BRANCH  10  24
ATOM     24  O   UNL     1      39.794  75.110  40.032  0.00  0.00    -0.464 OA
BRANCH  24  25
ATOM     25  C   UNL     1      39.258  73.853  39.708  0.00  0.00    +0.319 C 
BRANCH  25  26
ATOM     26  C   UNL     1      39.662  72.781  40.636  0.00  0.00    +0.408 C 
ATOM     27  O   UNL     1      39.163  71.606  40.622  0.00  0.00    -0.241 OA
ATOM     28  O   UNL     1      40.633  72.989  41.604  0.00  0.00    -0.241 OA
ENDBRANCH  25  26
ENDBRANCH  24  25
ENDBRANCH  10  24
TORSDOF 10
