REMARK  Name = Tretinoin
REMARK  5 active torsions:
REMARK  status: ('A' for Active; 'I' for Inactive)
REMARK    1  A    between atoms: C_3  and  C_10
REMARK    2  A    between atoms: C_11  and  C_12
REMARK    3  A    between atoms: C_13  and  C_14
REMARK    4  A    between atoms: C_15  and  C_16
REMARK    5  A    between atoms: C_17  and  C_18
REMARK                            x       y       z     vdW  Elec       q    Type
REMARK                         _______ _______ _______ _____ _____    ______ ____
ROOT
ATOM      1  C   UNL     1      47.398  82.248  42.606  0.00  0.00    -0.005 C 
ATOM      2  C   UNL     1      46.891  81.789  41.494  0.00  0.00    -0.005 C 
ENDROOT
BRANCH   1   5
ATOM      3  C   UNL     1      47.347  84.792  43.536  0.00  0.00    +0.026 C 
ATOM      4  C   UNL     1      48.655  84.177  43.241  0.00  0.00    -0.048 C 
ATOM      5  C   UNL     1      48.683  82.913  42.795  0.00  0.00    -0.031 C 
ATOM      6  C   UNL     1      49.935  82.225  42.474  0.00  0.00    +0.018 C 
ATOM      7  C   UNL     1      51.166  83.124  42.651  0.00  0.00    +0.004 C 
ATOM      8  C   UNL     1      50.983  83.987  43.868  0.00  0.00    +0.005 C 
ATOM      9  C   UNL     1      49.881  84.980  43.490  0.00  0.00    +0.022 C 
ATOM     10  C   UNL     1      50.158  80.967  43.273  0.00  0.00    +0.004 C 
ATOM     11  C   UNL     1      49.944  81.914  40.969  0.00  0.00    +0.004 C 
ENDBRANCH   1   5
BRANCH   2  12
ATOM     12  C   UNL     1      46.369  81.316  40.355  0.00  0.00    -0.022 C 
ATOM     13  C   UNL     1      46.022  80.025  40.119  0.00  0.00    -0.004 C 
ATOM     14  C   UNL     1      46.084  82.162  39.085  0.00  0.00    +0.031 C 
BRANCH  13  15
ATOM     15  C   UNL     1      44.658  79.619  40.073  0.00  0.00    -0.001 C 
ATOM     16  C   UNL     1      43.923  79.428  38.978  0.00  0.00    -0.004 C 
BRANCH  16  17
ATOM     17  C   UNL     1      42.815  78.488  38.982  0.00  0.00    -0.015 C 
ATOM     18  C   UNL     1      41.992  78.276  38.016  0.00  0.00    +0.082 C 
ATOM     19  C   UNL     1      42.638  77.682  40.260  0.00  0.00    +0.031 C 
BRANCH  18  20
ATOM     20  C   UNL     1      41.019  77.236  37.965  0.00  0.00    +0.388 C 
ATOM     21  O   UNL     1      40.185  77.267  36.968  0.00  0.00    -0.241 OA
ATOM     22  O   UNL     1      40.853  76.191  38.854  0.00  0.00    -0.241 OA
ENDBRANCH  18  20
ENDBRANCH  16  17
ENDBRANCH  13  15
ENDBRANCH   2  12
TORSDOF 5
