REMARK  Name = Triamcinolone
REMARK  2 active torsions:
REMARK  status: ('A' for Active; 'I' for Inactive)
REMARK    1  A    between atoms: C_10  and  C_11
REMARK    2  A    between atoms: C_11  and  C_13
REMARK                            x       y       z     vdW  Elec       q    Type
REMARK                         _______ _______ _______ _____ _____    ______ ____
ROOT
ATOM      1  C   UNL     1      49.373  81.599  39.943  0.00  0.00    +0.003 C 
ATOM      2  C   UNL     1      48.311  81.926  40.968  0.00  0.00    +0.037 C 
ATOM      3  C   UNL     1      47.109  82.536  40.327  0.00  0.00    +0.039 C 
ATOM      4  C   UNL     1      46.139  81.550  39.732  0.00  0.00    +0.182 C 
ATOM      5  C   UNL     1      46.582  80.135  39.630  0.00  0.00    +0.168 C 
ATOM      6  C   UNL     1      47.361  79.587  40.761  0.00  0.00    +0.034 C 
ATOM      7  C   UNL     1      47.745  80.712  41.655  0.00  0.00    +0.008 C 
ATOM      8  C   UNL     1      48.661  80.461  42.780  0.00  0.00    +0.036 C 
ATOM      9  C   UNL     1      48.642  81.895  43.367  0.00  0.00    +0.186 C 
ATOM     10  C   UNL     1      48.975  82.664  42.068  0.00  0.00    +0.207 C 
ATOM     11  O   UNL     1      50.395  82.499  42.009  0.00  0.00    -0.215 OA
ATOM     12  O   UNL     1      49.658  81.962  44.283  0.00  0.00    -0.220 OA
ATOM     13  C   UNL     1      46.708  78.592  41.660  0.00  0.00    +0.007 C 
ATOM     14  C   UNL     1      45.734  77.663  41.047  0.00  0.00    +0.023 C 
ATOM     15  C   UNL     1      44.796  78.523  40.267  0.00  0.00    -0.035 C 
ATOM     16  C   UNL     1      43.543  78.529  40.591  0.00  0.00    +0.034 C 
ATOM     17  C   UNL     1      42.611  79.345  39.862  0.00  0.00    +0.195 C 
ATOM     18  O   UNL     1      41.399  79.337  40.192  0.00  0.00    -0.287 OA
ATOM     19  C   UNL     1      43.143  80.154  38.754  0.00  0.00    +0.038 C 
ATOM     20  C   UNL     1      44.430  80.123  38.452  0.00  0.00    -0.017 C 
ATOM     21  C   UNL     1      45.404  79.293  39.188  0.00  0.00    +0.064 C 
ATOM     22  C   UNL     1      45.848  78.232  38.156  0.00  0.00    +0.011 C 
ATOM     23  F   UNL     1      47.409  80.089  38.484  0.00  0.00    -0.237 F 
ATOM     24  O   UNL     1      44.844  81.657  40.298  0.00  0.00    -0.220 OA
ENDROOT
BRANCH  10  25
ATOM     25  C   UNL     1      48.737  84.089  42.200  0.00  0.00    +0.213 C 
ATOM     26  O   UNL     1      49.421  84.881  41.594  0.00  0.00    -0.291 OA
BRANCH  25  27
ATOM     27  C   UNL     1      47.666  84.632  43.066  0.00  0.00    +0.248 C 
ATOM     28  O   UNL     1      47.636  86.050  43.004  0.00  0.00    -0.212 OA
ENDBRANCH  25  27
ENDBRANCH  10  25
TORSDOF 2
