REMARK  Name = Triazolam
REMARK  1 active torsions:
REMARK  status: ('A' for Active; 'I' for Inactive)
REMARK    1  A    between atoms: C_14  and  C_17
REMARK                            x       y       z     vdW  Elec       q    Type
REMARK                         _______ _______ _______ _____ _____    ______ ____
ROOT
ATOM      1  C   UNL     1      48.763  81.916  38.487  0.00  0.00    +0.074 C 
ATOM      2  C   UNL     1      47.297  81.915  38.536  0.00  0.00    +0.147 A 
ATOM      3  N   UNL     1      46.448  82.284  37.522  0.00  0.00    -0.133 NA
ATOM      4  N   UNL     1      45.189  82.078  37.901  0.00  0.00    -0.131 NA
ATOM      5  C   UNL     1      45.179  81.578  39.154  0.00  0.00    +0.172 A 
ATOM      6  N   UNL     1      46.500  81.498  39.505  0.00  0.00    -0.279 N 
ATOM      7  C   UNL     1      46.968  81.030  40.757  0.00  0.00    +0.068 A 
ATOM      8  C   UNL     1      46.372  80.000  41.482  0.00  0.00    +0.034 A 
ATOM      9  C   UNL     1      46.941  79.572  42.638  0.00  0.00    +0.014 A 
ATOM     10  C   UNL     1      48.094  80.168  43.072  0.00  0.00    +0.058 A 
ATOM     11  C   UNL     1      48.681  81.203  42.341  0.00  0.00    +0.013 A 
ATOM     12  C   UNL     1      48.113  81.663  41.144  0.00  0.00    +0.019 A 
ATOM     13 CL   UNL     1      48.815  79.606  44.559  0.00  0.00    -0.082 Cl
ATOM     14  C   UNL     1      45.112  79.315  41.202  0.00  0.00    +0.079 C 
ATOM     15  N   UNL     1      44.133  79.841  40.550  0.00  0.00    -0.262 NA
ATOM     16  C   UNL     1      43.968  81.165  39.937  0.00  0.00    +0.191 C 
ENDROOT
BRANCH  14  17
ATOM     17  C   UNL     1      44.930  77.984  41.702  0.00  0.00    +0.028 A 
ATOM     18  C   UNL     1      44.262  77.706  42.902  0.00  0.00    +0.002 A 
ATOM     19  C   UNL     1      44.108  76.418  43.346  0.00  0.00    +0.000 A 
ATOM     20  C   UNL     1      44.606  75.365  42.624  0.00  0.00    +0.001 A 
ATOM     21  C   UNL     1      45.276  75.596  41.426  0.00  0.00    +0.011 A 
ATOM     22  C   UNL     1      45.424  76.897  40.991  0.00  0.00    +0.059 A 
ATOM     23 CL   UNL     1      46.266  77.238  39.479  0.00  0.00    -0.082 Cl
ENDBRANCH  14  17
TORSDOF 1
