REMARK  Name = Tridihexethyl
REMARK  8 active torsions:
REMARK  status: ('A' for Active; 'I' for Inactive)
REMARK    1  A    between atoms: C_2  and  N_3
REMARK    2  A    between atoms: N_3  and  C_4
REMARK    3  A    between atoms: N_3  and  C_6
REMARK    4  A    between atoms: N_3  and  C_8
REMARK    5  A    between atoms: C_8  and  C_9
REMARK    6  A    between atoms: C_9  and  C_10
REMARK    7  A    between atoms: C_10  and  C_11
REMARK    8  A    between atoms: C_10  and  C_17
REMARK                            x       y       z     vdW  Elec       q    Type
REMARK                         _______ _______ _______ _____ _____    ______ ____
ROOT
ATOM      1  C   UNL     1      43.656  78.486  40.116  0.00  0.00    +0.143 C 
ATOM      2  O   UNL     1      42.683  79.198  40.933  0.00  0.00    -0.221 OA
ENDROOT
BRANCH   1   3
ATOM      3  C   UNL     1      44.115  77.471  41.100  0.00  0.00    +0.032 C 
ATOM      4  C   UNL     1      44.647  78.171  42.365  0.00  0.00    +0.003 C 
ATOM      5  C   UNL     1      44.359  77.259  43.518  0.00  0.00    +0.000 C 
ATOM      6  C   UNL     1      45.048  75.941  43.215  0.00  0.00    +0.000 C 
ATOM      7  C   UNL     1      45.871  76.014  41.967  0.00  0.00    +0.000 C 
ATOM      8  C   UNL     1      45.048  76.413  40.734  0.00  0.00    +0.003 C 
ENDBRANCH   1   3
BRANCH   1   9
ATOM      9  C   UNL     1      44.642  79.564  39.814  0.00  0.00    +0.005 A 
ATOM     10  C   UNL     1      44.225  80.770  39.281  0.00  0.00    -0.002 A 
ATOM     11  C   UNL     1      45.069  81.818  38.963  0.00  0.00    -0.000 A 
ATOM     12  C   UNL     1      46.419  81.669  39.187  0.00  0.00    -0.000 A 
ATOM     13  C   UNL     1      46.853  80.478  39.716  0.00  0.00    -0.000 A 
ATOM     14  C   UNL     1      45.995  79.451  40.023  0.00  0.00    -0.002 A 
ENDBRANCH   1   9
BRANCH   1  15
ATOM     15  C   UNL     1      42.818  78.065  38.992  0.00  0.00    +0.012 C 
BRANCH  15  16
ATOM     16  C   UNL     1      41.401  77.727  39.182  0.00  0.00    -0.070 C 
BRANCH  16  17
ATOM     17  N   UNL     1      40.808  77.050  38.047  0.00  0.00    +0.390 N 
BRANCH  17  19
ATOM     18  C   UNL     1      39.346  78.736  36.964  0.00  0.00    -0.024 C 
ATOM     19  C   UNL     1      40.550  77.844  36.902  0.00  0.00    -0.073 C 
ENDBRANCH  17  19
BRANCH  17  20
ATOM     20  C   UNL     1      41.594  75.900  37.653  0.00  0.00    -0.073 C 
ATOM     21  C   UNL     1      40.974  75.132  36.507  0.00  0.00    -0.024 C 
ENDBRANCH  17  20
BRANCH  17  22
ATOM     22  C   UNL     1      39.518  76.493  38.499  0.00  0.00    -0.073 C 
ATOM     23  C   UNL     1      39.636  75.715  39.753  0.00  0.00    -0.024 C 
ENDBRANCH  17  22
ENDBRANCH  16  17
ENDBRANCH  15  16
ENDBRANCH   1  15
TORSDOF 8
