REMARK  Name = Trifarotene
REMARK  8 active torsions:
REMARK  status: ('A' for Active; 'I' for Inactive)
REMARK    1  A    between atoms: C_2  and  C_5
REMARK    2  A    between atoms: C_6  and  N_30
REMARK    3  A    between atoms: C_9  and  C_11
REMARK    4  A    between atoms: C_12  and  O_26
REMARK    5  A    between atoms: C_15  and  C_17
REMARK    6  A    between atoms: C_20  and  C_23
REMARK    7  A    between atoms: O_26  and  C_27
REMARK    8  A    between atoms: C_27  and  C_28
REMARK                            x       y       z     vdW  Elec       q    Type
REMARK                         _______ _______ _______ _____ _____    ______ ____
ROOT
ATOM      1  C   UNL     1      45.693  80.150  40.190  0.00  0.00    +0.034 A 
ATOM      2  C   UNL     1      45.270  80.984  39.129  0.00  0.00    +0.139 A 
ATOM      3  C   UNL     1      45.923  82.173  39.026  0.00  0.00    +0.037 A 
ATOM      4  C   UNL     1      46.931  82.562  39.879  0.00  0.00    +0.003 A 
ATOM      5  C   UNL     1      47.330  81.743  40.900  0.00  0.00    +0.000 A 
ATOM      6  C   UNL     1      46.692  80.531  41.039  0.00  0.00    +0.003 A 
ENDROOT
BRANCH   1  11
ATOM      7  C   UNL     1      44.609  76.840  41.684  0.00  0.00    -0.009 A 
ATOM      8  C   UNL     1      43.774  76.370  40.718  0.00  0.00    +0.044 A 
ATOM      9  C   UNL     1      43.546  77.141  39.539  0.00  0.00    +0.014 A 
ATOM     10  C   UNL     1      44.175  78.338  39.412  0.00  0.00    +0.001 A 
ATOM     11  C   UNL     1      45.026  78.842  40.371  0.00  0.00    +0.003 A 
ATOM     12  C   UNL     1      45.230  78.088  41.491  0.00  0.00    -0.003 A 
BRANCH   8  13
ATOM     13  N   UNL     1      43.063  75.162  40.805  0.00  0.00    -0.308 N 
ATOM     14  C   UNL     1      43.475  73.803  40.674  0.00  0.00    +0.091 C 
ATOM     15  C   UNL     1      42.289  73.173  39.876  0.00  0.00    +0.023 C 
ATOM     16  C   UNL     1      41.142  73.755  40.633  0.00  0.00    +0.023 C 
ATOM     17  C   UNL     1      41.601  75.131  41.041  0.00  0.00    +0.091 C 
ENDBRANCH   8  13
BRANCH   7  19
ATOM     18  C   UNL     1      45.899  76.720  43.839  0.00  0.00    +0.004 C 
ATOM     19  C   UNL     1      44.928  76.083  42.902  0.00  0.00    +0.020 C 
ATOM     20  C   UNL     1      43.641  75.798  43.661  0.00  0.00    +0.004 C 
ATOM     21  C   UNL     1      45.474  74.693  42.547  0.00  0.00    +0.004 C 
ENDBRANCH   7  19
ENDBRANCH   1  11
BRANCH   5  22
ATOM     22  C   UNL     1      48.410  82.140  41.831  0.00  0.00    +0.000 A 
ATOM     23  C   UNL     1      49.729  81.814  41.592  0.00  0.00    +0.000 A 
ATOM     24  C   UNL     1      50.742  82.180  42.454  0.00  0.00    +0.007 A 
ATOM     25  C   UNL     1      50.475  82.895  43.602  0.00  0.00    +0.080 A 
ATOM     26  C   UNL     1      49.155  83.221  43.840  0.00  0.00    +0.007 A 
ATOM     27  C   UNL     1      48.142  82.855  42.978  0.00  0.00    +0.000 A 
BRANCH  25  28
ATOM     28  C   UNL     1      51.540  83.288  44.520  0.00  0.00    +0.388 C 
ATOM     29  O   UNL     1      52.694  82.843  44.314  0.00  0.00    -0.241 OA
ATOM     30  O   UNL     1      51.343  84.124  45.603  0.00  0.00    -0.241 OA
ENDBRANCH  25  28
ENDBRANCH   5  22
BRANCH   2  31
ATOM     31  O   UNL     1      44.266  80.501  38.351  0.00  0.00    -0.473 OA
BRANCH  31  32
ATOM     32  C   UNL     1      42.957  80.917  38.303  0.00  0.00    +0.241 C 
BRANCH  32  33
ATOM     33  C   UNL     1      42.644  81.634  37.026  0.00  0.00    +0.229 C 
ATOM     34  O   UNL     1      42.826  83.033  37.172  0.00  0.00    -0.216 OA
ENDBRANCH  32  33
ENDBRANCH  31  32
ENDBRANCH   2  31
TORSDOF 8
