REMARK  Name = Trihexyphenidyl
REMARK  5 active torsions:
REMARK  status: ('A' for Active; 'I' for Inactive)
REMARK    1  A    between atoms: C_4  and  C_7
REMARK    2  A    between atoms: C_7  and  C_8
REMARK    3  A    between atoms: C_7  and  C_16
REMARK    4  A    between atoms: C_8  and  C_9
REMARK    5  A    between atoms: C_9  and  N_10
REMARK                            x       y       z     vdW  Elec       q    Type
REMARK                         _______ _______ _______ _____ _____    ______ ____
ROOT
ATOM      1  C   UNL     1      44.576  79.495  40.080  0.00  0.00    +0.147 C 
ATOM      2  O   UNL     1      43.604  80.329  40.705  0.00  0.00    -0.221 OA
ENDROOT
BRANCH   1   6
ATOM      3  C   UNL     1      47.694  82.217  39.308  0.00  0.00    +0.000 C 
ATOM      4  C   UNL     1      47.622  81.658  40.692  0.00  0.00    +0.000 C 
ATOM      5  C   UNL     1      46.189  81.205  41.032  0.00  0.00    +0.003 C 
ATOM      6  C   UNL     1      45.734  80.394  39.849  0.00  0.00    +0.032 C 
ATOM      7  C   UNL     1      45.543  81.256  38.622  0.00  0.00    +0.003 C 
ATOM      8  C   UNL     1      46.340  82.541  38.736  0.00  0.00    +0.000 C 
ENDBRANCH   1   6
BRANCH   1   9
ATOM      9  C   UNL     1      44.773  78.337  40.939  0.00  0.00    +0.005 A 
ATOM     10  C   UNL     1      45.465  77.233  40.487  0.00  0.00    -0.002 A 
ATOM     11  C   UNL     1      45.674  76.110  41.273  0.00  0.00    -0.000 A 
ATOM     12  C   UNL     1      45.185  76.064  42.558  0.00  0.00    -0.000 A 
ATOM     13  C   UNL     1      44.485  77.171  43.027  0.00  0.00    -0.000 A 
ATOM     14  C   UNL     1      44.285  78.285  42.229  0.00  0.00    -0.002 A 
ENDBRANCH   1   9
BRANCH   1  15
ATOM     15  C   UNL     1      43.903  79.103  38.760  0.00  0.00    +0.052 C 
BRANCH  15  16
ATOM     16  C   UNL     1      42.494  78.579  39.003  0.00  0.00    +0.075 C 
BRANCH  16  17
ATOM     17  N   UNL     1      42.000  77.823  37.912  0.00  0.00    -0.273 NA
ATOM     18  C   UNL     1      40.946  78.407  37.174  0.00  0.00    +0.072 C 
ATOM     19  C   UNL     1      39.675  77.606  37.121  0.00  0.00    +0.017 C 
ATOM     20  C   UNL     1      39.435  76.818  38.374  0.00  0.00    +0.003 C 
ATOM     21  C   UNL     1      40.594  75.889  38.568  0.00  0.00    +0.017 C 
ATOM     22  C   UNL     1      41.892  76.425  38.049  0.00  0.00    +0.072 C 
ENDBRANCH  16  17
ENDBRANCH  15  16
ENDBRANCH   1  15
TORSDOF 5
