REMARK  Name = Triheptanoin
REMARK  23 active torsions:
REMARK  status: ('A' for Active; 'I' for Inactive)
REMARK    1  A    between atoms: C_2  and  C_3
REMARK    2  A    between atoms: C_3  and  C_4
REMARK    3  A    between atoms: C_4  and  C_5
REMARK    4  A    between atoms: C_5  and  C_6
REMARK    5  A    between atoms: C_6  and  C_7
REMARK    6  A    between atoms: C_7  and  O_9
REMARK    7  A    between atoms: O_9  and  C_10
REMARK    8  A    between atoms: C_10  and  C_11
REMARK    9  A    between atoms: C_11  and  C_12
REMARK   10  A    between atoms: C_11  and  O_22
REMARK   11  A    between atoms: C_12  and  O_13
REMARK   12  A    between atoms: O_13  and  C_14
REMARK   13  A    between atoms: C_14  and  C_16
REMARK   14  A    between atoms: C_16  and  C_17
REMARK   15  A    between atoms: C_17  and  C_18
REMARK   16  A    between atoms: C_18  and  C_19
REMARK   17  A    between atoms: C_19  and  C_20
REMARK   18  A    between atoms: O_22  and  C_23
REMARK   19  A    between atoms: C_23  and  C_25
REMARK   20  A    between atoms: C_25  and  C_26
REMARK   21  A    between atoms: C_26  and  C_27
REMARK   22  A    between atoms: C_27  and  C_28
REMARK   23  A    between atoms: C_28  and  C_29
REMARK                            x       y       z     vdW  Elec       q    Type
REMARK                         _______ _______ _______ _____ _____    ______ ____
ROOT
ATOM      1  C   UNL     1      44.066  78.748  39.815  0.00  0.00    +0.256 C 
ENDROOT
BRANCH   1   2
ATOM      2  O   UNL     1      44.539  78.601  41.127  0.00  0.00    -0.444 OA
BRANCH   2   3
ATOM      3  C   UNL     1      44.865  77.365  41.681  0.00  0.00    +0.317 C 
ATOM      4  O   UNL     1      44.146  76.956  42.621  0.00  0.00    -0.250 OA
BRANCH   3   5
ATOM      5  C   UNL     1      45.994  76.527  41.228  0.00  0.00    +0.110 C 
BRANCH   5   6
ATOM      6  C   UNL     1      46.128  75.357  42.171  0.00  0.00    +0.012 C 
BRANCH   6   7
ATOM      7  C   UNL     1      47.176  74.376  41.768  0.00  0.00    +0.001 C 
BRANCH   7   8
ATOM      8  C   UNL     1      47.315  73.233  42.750  0.00  0.00    +0.000 C 
BRANCH   8   9
ATOM      9  C   UNL     1      48.441  72.306  42.372  0.00  0.00    +0.000 C 
ATOM     10  C   UNL     1      49.607  72.624  43.310  0.00  0.00    +0.000 C 
ENDBRANCH   8   9
ENDBRANCH   7   8
ENDBRANCH   6   7
ENDBRANCH   5   6
ENDBRANCH   3   5
ENDBRANCH   2   3
ENDBRANCH   1   2
BRANCH   1  11
ATOM     11  C   UNL     1      44.414  80.017  39.117  0.00  0.00    +0.256 C 
BRANCH  11  12
ATOM     12  O   UNL     1      45.446  80.752  39.687  0.00  0.00    -0.444 OA
BRANCH  12  13
ATOM     13  C   UNL     1      45.974  81.930  39.234  0.00  0.00    +0.317 C 
ATOM     14  O   UNL     1      45.789  82.281  38.051  0.00  0.00    -0.250 OA
BRANCH  13  15
ATOM     15  C   UNL     1      46.768  82.793  40.146  0.00  0.00    +0.110 C 
BRANCH  15  16
ATOM     16  C   UNL     1      48.234  82.642  39.728  0.00  0.00    +0.012 C 
BRANCH  16  17
ATOM     17  C   UNL     1      49.113  83.596  40.519  0.00  0.00    +0.001 C 
BRANCH  17  18
ATOM     18  C   UNL     1      49.621  82.824  41.718  0.00  0.00    +0.000 C 
BRANCH  18  19
ATOM     19  C   UNL     1      50.508  83.690  42.587  0.00  0.00    +0.000 C 
ATOM     20  C   UNL     1      49.958  83.694  43.979  0.00  0.00    +0.000 C 
ENDBRANCH  18  19
ENDBRANCH  17  18
ENDBRANCH  16  17
ENDBRANCH  15  16
ENDBRANCH  13  15
ENDBRANCH  12  13
ENDBRANCH  11  12
ENDBRANCH   1  11
BRANCH   1  21
ATOM     21  C   UNL     1      42.534  78.614  39.939  0.00  0.00    +0.256 C 
BRANCH  21  22
ATOM     22  O   UNL     1      41.927  78.716  38.707  0.00  0.00    -0.444 OA
BRANCH  22  23
ATOM     23  C   UNL     1      41.572  77.644  37.947  0.00  0.00    +0.317 C 
ATOM     24  O   UNL     1      42.424  76.933  37.359  0.00  0.00    -0.250 OA
BRANCH  23  25
ATOM     25  C   UNL     1      40.099  77.326  37.828  0.00  0.00    +0.110 C 
BRANCH  25  26
ATOM     26  C   UNL     1      39.978  76.134  36.920  0.00  0.00    +0.012 C 
BRANCH  26  27
ATOM     27  C   UNL     1      38.511  75.800  36.773  0.00  0.00    +0.001 C 
BRANCH  27  28
ATOM     28  C   UNL     1      38.301  74.637  35.826  0.00  0.00    +0.000 C 
BRANCH  28  30
ATOM     29  C   UNL     1      36.001  74.021  36.581  0.00  0.00    +0.000 C 
ATOM     30  C   UNL     1      37.452  73.601  36.530  0.00  0.00    +0.000 C 
ENDBRANCH  28  30
ENDBRANCH  27  28
ENDBRANCH  26  27
ENDBRANCH  25  26
ENDBRANCH  23  25
ENDBRANCH  22  23
ENDBRANCH  21  22
ENDBRANCH   1  21
TORSDOF 23
