REMARK  Name = Trilostane
REMARK  1 active torsions:
REMARK  status: ('A' for Active; 'I' for Inactive)
REMARK    1  A    between atoms: C_17  and  C_22
REMARK                            x       y       z     vdW  Elec       q    Type
REMARK                         _______ _______ _______ _____ _____    ______ ____
ROOT
ATOM      1  C   UNL     1      49.446  82.873  44.786  0.00  0.00    +0.003 C 
ATOM      2  C   UNL     1      49.882  83.198  43.350  0.00  0.00    +0.028 C 
ATOM      3  C   UNL     1      48.927  84.206  42.795  0.00  0.00    +0.002 C 
ATOM      4  C   UNL     1      47.698  83.626  42.175  0.00  0.00    +0.000 C 
ATOM      5  C   UNL     1      47.768  82.167  41.900  0.00  0.00    +0.003 C 
ATOM      6  C   UNL     1      49.128  81.743  41.429  0.00  0.00    +0.000 C 
ATOM      7  C   UNL     1      50.093  81.974  42.551  0.00  0.00    +0.002 C 
ATOM      8  C   UNL     1      51.535  81.951  42.100  0.00  0.00    +0.003 C 
ATOM      9  C   UNL     1      52.210  82.703  43.227  0.00  0.00    +0.033 C 
ATOM     10  C   UNL     1      51.259  83.827  43.480  0.00  0.00    +0.152 C 
ATOM     11  O   UNL     1      51.468  84.321  44.786  0.00  0.00    -0.223 OA
ATOM     12  C   UNL     1      49.535  82.415  40.147  0.00  0.00    +0.003 C 
ATOM     13  C   UNL     1      48.460  82.716  39.200  0.00  0.00    +0.030 C 
ATOM     14  C   UNL     1      47.058  82.466  39.584  0.00  0.00    +0.125 C 
ATOM     15  C   UNL     1      46.791  81.753  40.850  0.00  0.00    +0.030 C 
ATOM     16  C   UNL     1      46.901  80.253  40.519  0.00  0.00    +0.042 C 
ATOM     17  C   UNL     1      45.700  80.003  39.679  0.00  0.00    +0.083 C 
ATOM     18  C   UNL     1      45.392  80.882  38.757  0.00  0.00    +0.208 C 
ATOM     19  C   UNL     1      46.113  82.114  38.449  0.00  0.00    +0.201 C 
ATOM     20  O   UNL     1      46.025  83.277  39.150  0.00  0.00    -0.348 OA
ATOM     21  O   UNL     1      44.246  80.595  37.993  0.00  0.00    -0.288 OA
ATOM     22  C   UNL     1      45.364  81.978  41.316  0.00  0.00    +0.003 C 
ENDROOT
BRANCH  17  23
ATOM     23  C   UNL     1      44.944  78.786  39.948  0.00  0.00    +0.099 C 
ATOM     24  N   UNL     1      44.342  77.847  40.167  0.00  0.00    -0.191 NA
ENDBRANCH  17  23
TORSDOF 1
