REMARK  Name = Trilaciclib
REMARK  1 active torsions:
REMARK  status: ('A' for Active; 'I' for Inactive)
REMARK    1  A    between atoms: N_5  and  C_8
REMARK                            x       y       z     vdW  Elec       q    Type
REMARK                         _______ _______ _______ _____ _____    ______ ____
ROOT
ATOM      1  C   UNL     1      41.815  77.050  39.076  0.00  0.00    +0.067 A 
ATOM      2  C   UNL     1      42.888  77.657  39.727  0.00  0.00    +0.115 A 
ATOM      3  N   UNL     1      43.346  78.841  39.303  0.00  0.00    -0.226 NA
ATOM      4  C   UNL     1      42.822  79.525  38.243  0.00  0.00    +0.155 A 
ATOM      5  C   UNL     1      41.776  78.937  37.606  0.00  0.00    +0.037 A 
ATOM      6  C   UNL     1      41.258  77.697  38.010  0.00  0.00    +0.019 A 
ATOM      7  N   UNL     1      43.408  80.756  37.916  0.00  0.00    -0.159 NA
ATOM      8  C   UNL     1      44.667  81.203  38.338  0.00  0.00    +0.244 A 
ATOM      9  N   UNL     1      45.376  82.178  37.773  0.00  0.00    -0.210 NA
ATOM     10  C   UNL     1      46.587  82.550  38.242  0.00  0.00    +0.105 A 
ATOM     11  C   UNL     1      47.153  81.932  39.337  0.00  0.00    +0.055 A 
ATOM     12  C   UNL     1      48.311  82.040  40.056  0.00  0.00    +0.026 A 
ATOM     13  C   UNL     1      48.311  81.107  41.088  0.00  0.00    +0.117 A 
ATOM     14  C   UNL     1      49.300  80.841  42.152  0.00  0.00    +0.281 C 
ATOM     15  O   UNL     1      50.368  81.460  42.234  0.00  0.00    -0.267 OA
ATOM     16  N   UNL     1      48.918  79.819  43.063  0.00  0.00    -0.198 NA
ATOM     17  C   UNL     1      47.493  79.601  43.222  0.00  0.00    +0.136 C 
ATOM     18  C   UNL     1      46.850  79.366  41.886  0.00  0.00    +0.090 C 
ATOM     19  N   UNL     1      47.156  80.443  40.983  0.00  0.00    -0.311 N 
ATOM     20  C   UNL     1      46.428  80.925  39.925  0.00  0.00    +0.148 A 
ATOM     21  N   UNL     1      45.233  80.600  39.416  0.00  0.00    -0.195 NA
ATOM     22  C   UNL     1      45.355  79.197  42.042  0.00  0.00    +0.023 C 
ATOM     23  C   UNL     1      44.809  77.988  41.325  0.00  0.00    +0.002 C 
ATOM     24  C   UNL     1      45.329  76.706  41.955  0.00  0.00    +0.000 C 
ATOM     25  C   UNL     1      46.816  76.916  42.160  0.00  0.00    +0.002 C 
ATOM     26  C   UNL     1      47.384  78.041  41.363  0.00  0.00    +0.023 C 
ENDROOT
BRANCH   1  31
ATOM     27  C   UNL     1      40.475  71.991  39.833  0.00  0.00    +0.090 C 
ATOM     28  N   UNL     1      40.200  73.292  40.397  0.00  0.00    -0.269 NA
ATOM     29  C   UNL     1      39.608  74.129  39.395  0.00  0.00    +0.094 C 
ATOM     30  C   UNL     1      40.699  74.843  38.586  0.00  0.00    +0.108 C 
ATOM     31  N   UNL     1      41.304  75.794  39.490  0.00  0.00    -0.303 N 
ATOM     32  C   UNL     1      41.375  75.397  40.886  0.00  0.00    +0.108 C 
ATOM     33  C   UNL     1      41.395  73.865  40.956  0.00  0.00    +0.094 C 
ENDBRANCH   1  31
TORSDOF 1
