REMARK  Name = Trimethobenzamide
REMARK  10 active torsions:
REMARK  status: ('A' for Active; 'I' for Inactive)
REMARK    1  A    between atoms: N_2  and  C_4
REMARK    2  A    between atoms: C_4  and  C_5
REMARK    3  A    between atoms: C_5  and  O_6
REMARK    4  A    between atoms: O_6  and  C_7
REMARK    5  A    between atoms: C_10  and  C_13
REMARK    6  A    between atoms: C_13  and  N_14
REMARK    7  A    between atoms: C_15  and  C_17
REMARK    8  A    between atoms: C_19  and  O_27
REMARK    9  A    between atoms: C_20  and  O_25
REMARK   10  A    between atoms: C_21  and  O_23
REMARK                            x       y       z     vdW  Elec       q    Type
REMARK                         _______ _______ _______ _____ _____    ______ ____
ROOT
ATOM      1  N   UNL     1      46.483  79.631  40.196  0.00  0.00    -0.197 NA
ATOM      2  C   UNL     1      46.679  80.976  40.555  0.00  0.00    +0.265 C 
ATOM      3  O   UNL     1      45.809  81.841  40.258  0.00  0.00    -0.268 OA
ENDROOT
BRANCH   2   4
ATOM      4  C   UNL     1      47.851  81.443  41.266  0.00  0.00    +0.061 A 
ATOM      5  C   UNL     1      47.897  82.672  41.879  0.00  0.00    +0.045 A 
ATOM      6  C   UNL     1      49.028  83.108  42.548  0.00  0.00    +0.176 A 
ATOM      7  C   UNL     1      50.160  82.336  42.634  0.00  0.00    +0.206 A 
ATOM      8  C   UNL     1      50.128  81.100  42.025  0.00  0.00    +0.176 A 
ATOM      9  C   UNL     1      49.005  80.655  41.355  0.00  0.00    +0.045 A 
BRANCH   8  10
ATOM     10  O   UNL     1      51.293  80.339  42.129  0.00  0.00    -0.468 OA
ATOM     11  C   UNL     1      51.254  79.032  41.581  0.00  0.00    +0.253 C 
ENDBRANCH   8  10
BRANCH   7  12
ATOM     12  O   UNL     1      51.252  82.789  43.295  0.00  0.00    -0.465 OA
ATOM     13  C   UNL     1      51.982  83.955  42.970  0.00  0.00    +0.253 C 
ENDBRANCH   7  12
BRANCH   6  14
ATOM     14  O   UNL     1      49.050  84.350  43.157  0.00  0.00    -0.468 OA
ATOM     15  C   UNL     1      47.884  85.136  43.135  0.00  0.00    +0.253 C 
ENDBRANCH   6  14
ENDBRANCH   2   4
BRANCH   1  16
ATOM     16  C   UNL     1      45.560  78.758  40.893  0.00  0.00    +0.142 C 
BRANCH  16  20
ATOM     17  C   UNL     1      41.900  77.835  38.835  0.00  0.00    +0.139 A 
ATOM     18  C   UNL     1      42.408  77.017  39.807  0.00  0.00    +0.037 A 
ATOM     19  C   UNL     1      43.585  77.339  40.455  0.00  0.00    +0.001 A 
ATOM     20  C   UNL     1      44.312  78.496  40.163  0.00  0.00    -0.000 A 
ATOM     21  C   UNL     1      43.798  79.312  39.188  0.00  0.00    +0.001 A 
ATOM     22  C   UNL     1      42.605  78.977  38.538  0.00  0.00    +0.037 A 
BRANCH  17  23
ATOM     23  O   UNL     1      40.730  77.587  38.140  0.00  0.00    -0.474 OA
BRANCH  23  24
ATOM     24  C   UNL     1      40.650  76.457  37.303  0.00  0.00    +0.223 C 
BRANCH  24  25
ATOM     25  C   UNL     1      39.294  76.320  36.668  0.00  0.00    +0.120 C 
BRANCH  25  27
ATOM     26  C   UNL     1      37.827  74.893  35.401  0.00  0.00    +0.090 C 
ATOM     27  N   UNL     1      39.164  75.075  35.932  0.00  0.00    -0.267 NA
ATOM     28  C   UNL     1      39.612  73.956  36.713  0.00  0.00    +0.090 C 
ENDBRANCH  25  27
ENDBRANCH  24  25
ENDBRANCH  23  24
ENDBRANCH  17  23
ENDBRANCH  16  20
ENDBRANCH   1  16
TORSDOF 10
