REMARK  Name = Trimegestone
REMARK  2 active torsions:
REMARK  status: ('A' for Active; 'I' for Inactive)
REMARK    1  A    between atoms: C_2  and  C_3
REMARK    2  A    between atoms: C_3  and  C_5
REMARK                            x       y       z     vdW  Elec       q    Type
REMARK                         _______ _______ _______ _____ _____    ______ ____
ROOT
ATOM      1  C   UNL     1      49.802  83.570  42.808  0.00  0.00    +0.054 C 
ATOM      2  C   UNL     1      49.718  84.604  41.686  0.00  0.00    +0.007 C 
ATOM      3  C   UNL     1      48.235  84.430  41.302  0.00  0.00    +0.001 C 
ATOM      4  C   UNL     1      48.177  82.969  41.189  0.00  0.00    +0.004 C 
ATOM      5  C   UNL     1      48.863  82.486  42.473  0.00  0.00    +0.007 C 
ATOM      6  C   UNL     1      49.410  81.152  42.125  0.00  0.00    +0.005 C 
ATOM      7  C   UNL     1      48.389  80.244  41.553  0.00  0.00    +0.022 C 
ATOM      8  C   UNL     1      47.134  80.851  41.078  0.00  0.00    -0.049 C 
ATOM      9  C   UNL     1      46.191  80.064  40.579  0.00  0.00    -0.033 C 
ATOM     10  C   UNL     1      46.385  78.583  40.496  0.00  0.00    +0.034 C 
ATOM     11  C   UNL     1      45.738  78.076  39.224  0.00  0.00    +0.074 C 
ATOM     12  C   UNL     1      44.313  78.485  39.172  0.00  0.00    +0.173 C 
ATOM     13  O   UNL     1      43.416  77.647  38.921  0.00  0.00    -0.291 OA
ATOM     14  C   UNL     1      44.031  79.892  39.425  0.00  0.00    +0.033 C 
ATOM     15  C   UNL     1      44.939  80.620  40.095  0.00  0.00    -0.024 C 
ATOM     16  C   UNL     1      44.613  82.073  40.331  0.00  0.00    +0.026 C 
ATOM     17  C   UNL     1      45.943  82.793  40.043  0.00  0.00    +0.009 C 
ATOM     18  C   UNL     1      46.864  82.313  41.137  0.00  0.00    +0.018 C 
ATOM     19  C   UNL     1      47.859  82.291  43.590  0.00  0.00    +0.000 C 
ATOM     20  C   UNL     1      49.315  84.392  44.027  0.00  0.00    +0.007 C 
ENDROOT
BRANCH   1  21
ATOM     21  C   UNL     1      51.179  83.193  43.155  0.00  0.00    +0.180 C 
ATOM     22  O   UNL     1      51.623  83.205  44.313  0.00  0.00    -0.293 OA
BRANCH  21  24
ATOM     23  C   UNL     1      53.528  83.389  42.292  0.00  0.00    +0.044 C 
ATOM     24  C   UNL     1      52.164  82.763  42.126  0.00  0.00    +0.209 C 
ATOM     25  O   UNL     1      51.748  83.136  40.825  0.00  0.00    -0.215 OA
ENDBRANCH  21  24
ENDBRANCH   1  21
TORSDOF 2
