REMARK  Name = Trimetrexate
REMARK  6 active torsions:
REMARK  status: ('A' for Active; 'I' for Inactive)
REMARK    1  A    between atoms: C_3  and  C_14
REMARK    2  A    between atoms: C_14  and  N_15
REMARK    3  A    between atoms: N_15  and  C_16
REMARK    4  A    between atoms: C_18  and  O_26
REMARK    5  A    between atoms: C_19  and  O_24
REMARK    6  A    between atoms: C_20  and  O_22
REMARK                            x       y       z     vdW  Elec       q    Type
REMARK                         _______ _______ _______ _____ _____    ______ ____
ROOT
ATOM      1  C   UNL     1      47.090  81.815  42.528  0.00  0.00    +0.138 C 
ENDROOT
BRANCH   1   4
ATOM      2  C   UNL     1      45.673  79.306  42.495  0.00  0.00    +0.031 C 
ATOM      3  C   UNL     1      45.564  80.231  41.339  0.00  0.00    -0.020 A 
ATOM      4  C   UNL     1      46.255  81.451  41.366  0.00  0.00    -0.004 A 
ATOM      5  C   UNL     1      46.138  82.288  40.283  0.00  0.00    -0.001 A 
ATOM      6  C   UNL     1      45.371  81.969  39.186  0.00  0.00    +0.019 A 
ATOM      7  C   UNL     1      44.685  80.777  39.140  0.00  0.00    +0.087 A 
ATOM      8  C   UNL     1      44.792  79.913  40.231  0.00  0.00    +0.048 A 
ATOM      9  C   UNL     1      44.087  78.740  40.127  0.00  0.00    +0.174 A 
ATOM     10  N   UNL     1      43.336  78.451  39.023  0.00  0.00    -0.193 NA
ATOM     11  C   UNL     1      43.284  79.332  38.017  0.00  0.00    +0.258 A 
ATOM     12  N   UNL     1      43.941  80.495  38.042  0.00  0.00    -0.211 NA
ATOM     13  N   UNL     1      42.502  79.012  36.882  0.00  0.00    -0.086 NA
ATOM     14  N   UNL     1      44.126  77.793  41.185  0.00  0.00    -0.107 NA
ENDBRANCH   1   4
BRANCH   1  15
ATOM     15  N   UNL     1      48.045  80.810  42.909  0.00  0.00    -0.233 NA
BRANCH  15  16
ATOM     16  C   UNL     1      49.424  81.115  42.680  0.00  0.00    +0.072 A 
ATOM     17  C   UNL     1      49.972  82.335  43.009  0.00  0.00    +0.056 A 
ATOM     18  C   UNL     1      51.292  82.665  42.803  0.00  0.00    +0.177 A 
ATOM     19  C   UNL     1      52.137  81.711  42.224  0.00  0.00    +0.206 A 
ATOM     20  C   UNL     1      51.625  80.474  41.879  0.00  0.00    +0.177 A 
ATOM     21  C   UNL     1      50.298  80.193  42.106  0.00  0.00    +0.056 A 
BRANCH  20  22
ATOM     22  O   UNL     1      52.423  79.491  41.300  0.00  0.00    -0.468 OA
ATOM     23  C   UNL     1      51.889  78.223  40.974  0.00  0.00    +0.253 C 
ENDBRANCH  20  22
BRANCH  19  24
ATOM     24  O   UNL     1      53.482  81.996  41.994  0.00  0.00    -0.465 OA
ATOM     25  C   UNL     1      53.787  82.806  40.872  0.00  0.00    +0.253 C 
ENDBRANCH  19  24
BRANCH  18  26
ATOM     26  O   UNL     1      51.836  83.894  43.138  0.00  0.00    -0.468 OA
ATOM     27  C   UNL     1      51.012  84.904  43.658  0.00  0.00    +0.253 C 
ENDBRANCH  18  26
ENDBRANCH  15  16
ENDBRANCH   1  15
TORSDOF 6
