REMARK  Name = Trimethoprim
REMARK  5 active torsions:
REMARK  status: ('A' for Active; 'I' for Inactive)
REMARK    1  A    between atoms: O_2  and  C_3
REMARK    2  A    between atoms: C_5  and  C_13
REMARK    3  A    between atoms: C_7  and  O_11
REMARK    4  A    between atoms: C_8  and  O_9
REMARK    5  A    between atoms: C_13  and  C_14
REMARK                            x       y       z     vdW  Elec       q    Type
REMARK                         _______ _______ _______ _____ _____    ______ ____
ROOT
ATOM      1  C   UNL     1      49.968  80.803  42.110  0.00  0.00    +0.175 A 
ATOM      2  C   UNL     1      49.146  81.148  41.043  0.00  0.00    +0.036 A 
ATOM      3  C   UNL     1      48.461  82.321  40.960  0.00  0.00    -0.011 A 
ATOM      4  C   UNL     1      48.591  83.235  42.012  0.00  0.00    +0.036 A 
ATOM      5  C   UNL     1      49.397  82.933  43.090  0.00  0.00    +0.175 A 
ATOM      6  C   UNL     1      50.076  81.728  43.134  0.00  0.00    +0.206 A 
ENDROOT
BRANCH   1   8
ATOM      7  C   UNL     1      50.709  78.590  41.282  0.00  0.00    +0.253 C 
ATOM      8  O   UNL     1      50.662  79.629  42.207  0.00  0.00    -0.468 OA
ENDBRANCH   1   8
BRANCH   6   9
ATOM      9  O   UNL     1      50.871  81.484  44.248  0.00  0.00    -0.465 OA
ATOM     10  C   UNL     1      52.210  81.990  44.198  0.00  0.00    +0.253 C 
ENDBRANCH   6   9
BRANCH   5  11
ATOM     11  O   UNL     1      49.531  83.829  44.133  0.00  0.00    -0.468 OA
ATOM     12  C   UNL     1      48.864  85.072  44.162  0.00  0.00    +0.253 C 
ENDBRANCH   5  11
BRANCH   3  13
ATOM     13  C   UNL     1      47.583  82.730  39.835  0.00  0.00    +0.057 C 
BRANCH  13  14
ATOM     14  C   UNL     1      46.482  81.787  39.610  0.00  0.00    +0.036 A 
ATOM     15  C   UNL     1      46.168  80.796  40.544  0.00  0.00    +0.101 A 
ATOM     16  N   UNL     1      45.165  79.924  40.366  0.00  0.00    -0.210 NA
ATOM     17  C   UNL     1      44.414  79.994  39.237  0.00  0.00    +0.258 A 
ATOM     18  N   UNL     1      44.708  80.939  38.338  0.00  0.00    -0.193 NA
ATOM     19  C   UNL     1      45.720  81.837  38.492  0.00  0.00    +0.170 A 
ATOM     20  N   UNL     1      45.962  82.806  37.476  0.00  0.00    -0.107 NA
ATOM     21  N   UNL     1      43.345  79.103  38.997  0.00  0.00    -0.086 NA
ENDBRANCH  13  14
ENDBRANCH   3  13
TORSDOF 5
