REMARK  Name = Trimetazidine
REMARK  5 active torsions:
REMARK  status: ('A' for Active; 'I' for Inactive)
REMARK    1  A    between atoms: O_2  and  C_3
REMARK    2  A    between atoms: C_4  and  O_18
REMARK    3  A    between atoms: C_5  and  O_16
REMARK    4  A    between atoms: C_6  and  C_9
REMARK    5  A    between atoms: C_9  and  N_10
REMARK                            x       y       z     vdW  Elec       q    Type
REMARK                         _______ _______ _______ _____ _____    ______ ____
ROOT
ATOM      1  C   UNL     1      42.168  76.995  39.050  0.00  0.00    +0.175 A 
ATOM      2  C   UNL     1      42.932  76.496  40.095  0.00  0.00    +0.206 A 
ATOM      3  C   UNL     1      43.968  77.213  40.657  0.00  0.00    +0.173 A 
ATOM      4  C   UNL     1      44.256  78.467  40.170  0.00  0.00    +0.031 A 
ATOM      5  C   UNL     1      43.503  79.001  39.113  0.00  0.00    +0.003 A 
ATOM      6  C   UNL     1      42.495  78.249  38.597  0.00  0.00    +0.040 A 
ENDROOT
BRANCH   1   8
ATOM      7  C   UNL     1      40.213  76.534  37.599  0.00  0.00    +0.253 C 
ATOM      8  O   UNL     1      41.160  76.208  38.557  0.00  0.00    -0.468 OA
ENDBRANCH   1   8
BRANCH   3   9
ATOM      9  O   UNL     1      44.697  76.672  41.687  0.00  0.00    -0.469 OA
ATOM     10  C   UNL     1      44.640  77.054  43.023  0.00  0.00    +0.253 C 
ENDBRANCH   3   9
BRANCH   2  11
ATOM     11  O   UNL     1      42.677  75.237  40.618  0.00  0.00    -0.465 OA
ATOM     12  C   UNL     1      42.078  75.032  41.875  0.00  0.00    +0.253 C 
ENDBRANCH   2  11
BRANCH   4  13
ATOM     13  C   UNL     1      45.311  79.362  40.691  0.00  0.00    +0.102 C 
BRANCH  13  14
ATOM     14  N   UNL     1      45.458  80.610  40.028  0.00  0.00    -0.266 NA
ATOM     15  C   UNL     1      44.921  80.656  38.746  0.00  0.00    +0.091 C 
ATOM     16  C   UNL     1      45.066  82.108  38.236  0.00  0.00    +0.106 C 
ATOM     17  N   UNL     1      46.482  82.324  38.096  0.00  0.00    -0.215 NA
ATOM     18  C   UNL     1      47.171  82.284  39.371  0.00  0.00    +0.106 C 
ATOM     19  C   UNL     1      46.602  81.347  40.369  0.00  0.00    +0.091 C 
ENDBRANCH  13  14
ENDBRANCH   4  13
TORSDOF 5
