REMARK  Name = Trimebutine
REMARK  10 active torsions:
REMARK  status: ('A' for Active; 'I' for Inactive)
REMARK    1  A    between atoms: C_2  and  C_3
REMARK    2  A    between atoms: C_3  and  C_4
REMARK    3  A    between atoms: C_3  and  C_20
REMARK    4  A    between atoms: C_3  and  N_26
REMARK    5  A    between atoms: C_4  and  O_5
REMARK    6  A    between atoms: O_5  and  C_6
REMARK    7  A    between atoms: C_6  and  C_8
REMARK    8  A    between atoms: C_10  and  O_18
REMARK    9  A    between atoms: C_11  and  O_16
REMARK   10  A    between atoms: C_12  and  O_14
REMARK                            x       y       z     vdW  Elec       q    Type
REMARK                         _______ _______ _______ _____ _____    ______ ____
ROOT
ATOM      1  O   UNL     1      45.984  79.959  40.077  0.00  0.00    -0.444 OA
ENDROOT
BRANCH   1   2
ATOM      2  C   UNL     1      46.459  81.244  40.224  0.00  0.00    +0.341 C 
ATOM      3  O   UNL     1      45.826  82.162  39.649  0.00  0.00    -0.245 OA
BRANCH   2   4
ATOM      4  C   UNL     1      47.637  81.586  40.997  0.00  0.00    +0.082 A 
ATOM      5  C   UNL     1      48.724  80.746  40.960  0.00  0.00    +0.047 A 
ATOM      6  C   UNL     1      49.885  80.990  41.662  0.00  0.00    +0.176 A 
ATOM      7  C   UNL     1      49.975  82.122  42.441  0.00  0.00    +0.206 A 
ATOM      8  C   UNL     1      48.880  82.973  42.481  0.00  0.00    +0.176 A 
ATOM      9  C   UNL     1      47.727  82.720  41.776  0.00  0.00    +0.047 A 
BRANCH   8  10
ATOM     10  O   UNL     1      49.016  84.104  43.280  0.00  0.00    -0.468 OA
ATOM     11  C   UNL     1      47.924  84.980  43.395  0.00  0.00    +0.253 C 
ENDBRANCH   8  10
BRANCH   7  12
ATOM     12  O   UNL     1      51.134  82.381  43.151  0.00  0.00    -0.465 OA
ATOM     13  C   UNL     1      51.488  81.671  44.323  0.00  0.00    +0.253 C 
ENDBRANCH   7  12
BRANCH   6  14
ATOM     14  O   UNL     1      50.972  80.131  41.612  0.00  0.00    -0.468 OA
ATOM     15  C   UNL     1      50.843  78.798  41.120  0.00  0.00    +0.253 C 
ENDBRANCH   6  14
ENDBRANCH   2   4
ENDBRANCH   1   2
BRANCH   1  16
ATOM     16  C   UNL     1      45.199  79.365  41.053  0.00  0.00    +0.227 C 
BRANCH  16  17
ATOM     17  C   UNL     1      44.760  77.967  40.807  0.00  0.00    +0.105 C 
BRANCH  17  18
ATOM     18  C   UNL     1      43.643  77.862  39.840  0.00  0.00    -0.006 A 
ATOM     19  C   UNL     1      43.252  78.905  39.009  0.00  0.00    -0.003 A 
ATOM     20  C   UNL     1      42.200  78.808  38.123  0.00  0.00    -0.000 A 
ATOM     21  C   UNL     1      41.477  77.639  38.024  0.00  0.00    -0.000 A 
ATOM     22  C   UNL     1      41.845  76.590  38.838  0.00  0.00    -0.000 A 
ATOM     23  C   UNL     1      42.895  76.689  39.721  0.00  0.00    -0.003 A 
ENDBRANCH  17  18
BRANCH  17  24
ATOM     24  N   UNL     1      44.516  77.203  42.006  0.00  0.00    -0.266 NA
ATOM     25  C   UNL     1      43.181  76.643  41.947  0.00  0.00    +0.090 C 
ATOM     26  C   UNL     1      44.676  77.871  43.244  0.00  0.00    +0.090 C 
ENDBRANCH  17  24
BRANCH  17  28
ATOM     27  C   UNL     1      46.018  75.839  40.633  0.00  0.00    +0.002 C 
ATOM     28  C   UNL     1      45.990  77.265  40.200  0.00  0.00    +0.023 C 
ENDBRANCH  17  28
ENDBRANCH  16  17
ENDBRANCH   1  16
TORSDOF 10
