REMARK  Name = Trimazosin
REMARK  6 active torsions:
REMARK  status: ('A' for Active; 'I' for Inactive)
REMARK    1  A    between atoms: C_2  and  C_4
REMARK    2  A    between atoms: C_4  and  O_5
REMARK    3  A    between atoms: O_5  and  C_6
REMARK    4  A    between atoms: C_17  and  O_29
REMARK    5  A    between atoms: C_18  and  O_27
REMARK    6  A    between atoms: C_19  and  O_25
REMARK                            x       y       z     vdW  Elec       q    Type
REMARK                         _______ _______ _______ _____ _____    ______ ____
ROOT
ATOM      1  C   UNL     1      41.191  76.630  38.077  0.00  0.00    +0.405 C 
ATOM      2  O   UNL     1      41.231  75.403  38.349  0.00  0.00    -0.226 OA
ATOM      3  N   UNL     1      42.061  77.572  38.709  0.00  0.00    -0.243 N 
ATOM      4  C   UNL     1      42.780  77.291  39.912  0.00  0.00    +0.118 C 
ATOM      5  C   UNL     1      44.168  77.841  39.955  0.00  0.00    +0.115 C 
ATOM      6  N   UNL     1      44.387  78.969  39.099  0.00  0.00    -0.275 N 
ATOM      7  C   UNL     1      43.705  79.057  37.837  0.00  0.00    +0.115 C 
ATOM      8  C   UNL     1      42.226  78.880  38.105  0.00  0.00    +0.118 C 
ATOM      9  C   UNL     1      45.279  79.997  39.506  0.00  0.00    +0.222 A 
ATOM     10  N   UNL     1      46.082  79.858  40.580  0.00  0.00    -0.210 NA
ATOM     11  C   UNL     1      46.932  80.818  40.979  0.00  0.00    +0.124 A 
ATOM     12  C   UNL     1      47.757  80.686  42.075  0.00  0.00    +0.193 A 
ATOM     13  C   UNL     1      48.607  81.706  42.436  0.00  0.00    +0.208 A 
ATOM     14  C   UNL     1      48.671  82.897  41.721  0.00  0.00    +0.176 A 
ATOM     15  C   UNL     1      47.847  83.017  40.633  0.00  0.00    +0.045 A 
ATOM     16  C   UNL     1      46.985  82.007  40.253  0.00  0.00    +0.059 A 
ATOM     17  C   UNL     1      46.176  82.175  39.151  0.00  0.00    +0.174 A 
ATOM     18  N   UNL     1      45.359  81.162  38.828  0.00  0.00    -0.195 NA
ATOM     19  N   UNL     1      46.157  83.340  38.353  0.00  0.00    -0.107 NA
ENDROOT
BRANCH  14  20
ATOM     20  O   UNL     1      49.529  83.919  42.090  0.00  0.00    -0.468 OA
ATOM     21  C   UNL     1      48.970  85.105  42.616  0.00  0.00    +0.253 C 
ENDBRANCH  14  20
BRANCH  13  22
ATOM     22  O   UNL     1      49.440  81.595  43.528  0.00  0.00    -0.465 OA
ATOM     23  C   UNL     1      50.754  81.069  43.315  0.00  0.00    +0.253 C 
ENDBRANCH  13  22
BRANCH  12  24
ATOM     24  O   UNL     1      47.741  79.524  42.830  0.00  0.00    -0.467 OA
ATOM     25  C   UNL     1      46.460  79.088  43.292  0.00  0.00    +0.253 C 
ENDBRANCH  12  24
BRANCH   1  26
ATOM     26  O   UNL     1      40.264  77.043  37.131  0.00  0.00    -0.432 OA
BRANCH  26  27
ATOM     27  C   UNL     1      38.867  76.813  37.264  0.00  0.00    +0.240 C 
BRANCH  27  29
ATOM     28  C   UNL     1      37.144  75.437  36.076  0.00  0.00    +0.037 C 
ATOM     29  C   UNL     1      38.387  76.271  35.935  0.00  0.00    +0.167 C 
ATOM     30  C   UNL     1      39.443  75.419  35.274  0.00  0.00    +0.037 C 
ATOM     31  O   UNL     1      38.087  77.330  35.084  0.00  0.00    -0.222 OA
ENDBRANCH  27  29
ENDBRANCH  26  27
ENDBRANCH   1  26
TORSDOF 6
