REMARK  Name = Trioxsalen
REMARK  0 active torsions:
REMARK  status: ('A' for Active; 'I' for Inactive)
REMARK                            x       y       z     vdW  Elec       q    Type
REMARK                         _______ _______ _______ _____ _____    ______ ____
ROOT
ATOM      1  C   UNL     1      48.162  80.977  41.901  0.00  0.00    +0.031 C 
ATOM      2  C   UNL     1      47.138  81.045  40.827  0.00  0.00    -0.012 A 
ATOM      3  C   UNL     1      47.167  82.034  39.855  0.00  0.00    +0.078 A 
ATOM      4  C   UNL     1      46.188  82.038  38.889  0.00  0.00    +0.346 A 
ATOM      5  O   UNL     1      46.215  82.947  37.995  0.00  0.00    -0.244 OA
ATOM      6  O   UNL     1      45.260  81.122  38.903  0.00  0.00    -0.421 OA
ATOM      7  C   UNL     1      45.198  80.159  39.818  0.00  0.00    +0.147 A 
ATOM      8  C   UNL     1      46.142  80.086  40.819  0.00  0.00    +0.031 A 
ATOM      9  C   UNL     1      46.080  79.087  41.768  0.00  0.00    +0.006 A 
ATOM     10  C   UNL     1      45.052  78.147  41.710  0.00  0.00    +0.037 A 
ATOM     11  C   UNL     1      44.710  77.056  42.479  0.00  0.00    +0.036 A 
ATOM     12  C   UNL     1      43.577  76.479  41.949  0.00  0.00    +0.123 A 
ATOM     13  O   UNL     1      43.256  77.195  40.909  0.00  0.00    -0.458 OA
ATOM     14  C   UNL     1      44.089  78.192  40.718  0.00  0.00    +0.144 A 
ATOM     15  C   UNL     1      44.203  79.213  39.797  0.00  0.00    +0.047 A 
ATOM     16  C   UNL     1      43.180  79.302  38.702  0.00  0.00    +0.037 C 
ATOM     17  C   UNL     1      42.882  75.264  42.496  0.00  0.00    +0.072 C 
ENDROOT
TORSDOF 0
