REMARK  Name = Triptorelin
REMARK  33 active torsions:
REMARK  status: ('A' for Active; 'I' for Inactive)
REMARK    1  A    between atoms: C_2  and  C_4
REMARK    2  A    between atoms: C_4  and  C_5
REMARK    3  A    between atoms: C_5  and  C_6
REMARK    4  A    between atoms: C_5  and  N_31
REMARK    5  A    between atoms: N_8  and  C_9
REMARK    6  A    between atoms: C_9  and  C_10
REMARK    7  A    between atoms: C_9  and  C_17
REMARK    8  A    between atoms: C_10  and  C_11
REMARK    9  A    between atoms: C_11  and  C_12
REMARK   10  A    between atoms: C_12  and  N_13
REMARK   11  A    between atoms: C_23  and  C_24
REMARK   12  A    between atoms: N_26  and  C_27
REMARK   13  A    between atoms: C_27  and  C_28
REMARK   14  A    between atoms: C_32  and  C_34
REMARK   15  A    between atoms: C_34  and  C_35
REMARK   16  A    between atoms: C_34  and  N_45
REMARK   17  A    between atoms: C_35  and  C_36
REMARK   18  A    between atoms: C_46  and  C_48
REMARK   19  A    between atoms: C_48  and  C_49
REMARK   20  A    between atoms: C_48  and  N_57
REMARK   21  A    between atoms: C_49  and  C_50
REMARK   22  A    between atoms: C_58  and  CA_60
REMARK   23  A    between atoms: CA_60  and  C_61
REMARK   24  A    between atoms: CA_60  and  N_63
REMARK   25  A    between atoms: C_64  and  CA_66
REMARK   26  A    between atoms: CA_66  and  CB_67
REMARK   27  A    between atoms: CA_66  and  N_77
REMARK   28  A    between atoms: CB_67  and  CG_68
REMARK   29  A    between atoms: C_78  and  CA_80
REMARK   30  A    between atoms: CA_80  and  CB_81
REMARK   31  A    between atoms: CA_80  and  N_87
REMARK   32  A    between atoms: CB_81  and  CG_82
REMARK   33  A    between atoms: C_88  and  CA_90
REMARK                            x       y       z     vdW  Elec       q    Type
REMARK                         _______ _______ _______ _____ _____    ______ ____
ROOT
ATOM      1  C   UNL     1      45.182  77.614  41.573  0.00  0.00    +0.177 C 
ENDROOT
BRANCH   1   3
ATOM      2  N   UNL     1      46.107  76.708  43.824  0.00  0.00    -0.196 NA
ATOM      3  C   UNL     1      45.629  76.613  42.519  0.00  0.00    +0.262 C 
ATOM      4  O   UNL     1      45.566  75.403  42.053  0.00  0.00    -0.271 OA
BRANCH   2   5
ATOM      5  C   UNL     1      45.503  75.807  44.867  0.00  0.00    +0.177 C 
BRANCH   5   7
ATOM      6  N   UNL     1      45.804  75.460  47.373  0.00  0.00    -0.196 NA
ATOM      7  C   UNL     1      45.764  76.242  46.179  0.00  0.00    +0.262 C 
ATOM      8  O   UNL     1      46.018  77.515  46.381  0.00  0.00    -0.271 OA
BRANCH   6   9
ATOM      9  C   UNL     1      46.201  76.034  48.638  0.00  0.00    +0.173 C 
BRANCH   9  10
ATOM     10  C   UNL     1      47.580  76.539  48.693  0.00  0.00    +0.262 C 
ATOM     11  O   UNL     1      48.339  76.249  47.732  0.00  0.00    -0.271 OA
ATOM     12  N   UNL     1      48.126  77.313  49.732  0.00  0.00    -0.196 NA
BRANCH  12  13
ATOM     13  C   UNL     1      49.537  77.741  49.701  0.00  0.00    +0.171 C 
BRANCH  13  14
ATOM     14  C   UNL     1      50.116  77.634  51.039  0.00  0.00    +0.246 C 
ATOM     15  O   UNL     1      49.379  78.102  52.019  0.00  0.00    -0.273 OA
ATOM     16  N   UNL     1      51.334  77.108  51.466  0.00  0.00    -0.272 N 
ATOM     17  C   UNL     1      52.144  76.164  50.662  0.00  0.00    +0.094 C 
ATOM     18  C   UNL     1      53.565  76.385  51.104  0.00  0.00    +0.024 C 
ATOM     19  C   UNL     1      53.522  77.320  52.299  0.00  0.00    +0.031 C 
ATOM     20  C   UNL     1      52.036  77.342  52.699  0.00  0.00    +0.154 C 
BRANCH  20  21
ATOM     21  C   UNL     1      51.891  76.233  53.687  0.00  0.00    +0.260 C 
ATOM     22  O   UNL     1      51.496  75.122  53.252  0.00  0.00    -0.272 OA
ATOM     23  N   UNL     1      52.196  76.481  55.036  0.00  0.00    -0.194 NA
BRANCH  23  24
ATOM     24  C   UNL     1      51.133  76.658  55.992  0.00  0.00    +0.203 C 
BRANCH  24  25
ATOM     25  C   UNL     1      50.548  75.375  56.398  0.00  0.00    +0.283 C 
ATOM     26  O   UNL     1      50.955  74.341  55.770  0.00  0.00    -0.270 OA
ATOM     27  N   UNL     1      49.582  75.182  57.414  0.00  0.00    -0.086 NA
ENDBRANCH  24  25
ENDBRANCH  23  24
ENDBRANCH  20  21
ENDBRANCH  13  14
BRANCH  13  28
ATOM     28  C   UNL     1      49.654  79.021  48.979  0.00  0.00    +0.033 C 
BRANCH  28  29
ATOM     29  C   UNL     1      51.020  79.662  49.051  0.00  0.00    +0.029 C 
BRANCH  29  30
ATOM     30  C   UNL     1      50.843  81.102  48.619  0.00  0.00    +0.129 C 
BRANCH  30  31
ATOM     31  N   UNL     1      52.106  81.788  48.690  0.00  0.00    -0.234 NA
ATOM     32  C   UNL     1      52.276  83.018  48.374  0.00  0.00    +0.284 C 
ATOM     33  N   UNL     1      53.612  83.539  48.256  0.00  0.00    -0.104 NA
ATOM     34  N   UNL     1      51.167  83.882  48.147  0.00  0.00    -0.104 NA
ENDBRANCH  30  31
ENDBRANCH  29  30
ENDBRANCH  28  29
ENDBRANCH  13  28
ENDBRANCH  12  13
ENDBRANCH   9  10
BRANCH   9  35
ATOM     35  C   UNL     1      46.033  75.014  49.754  0.00  0.00    +0.031 C 
BRANCH  35  37
ATOM     36  C   UNL     1      43.877  75.846  50.708  0.00  0.00    +0.000 C 
ATOM     37  C   UNL     1      44.622  74.710  50.106  0.00  0.00    +0.002 C 
ATOM     38  C   UNL     1      44.596  73.563  51.099  0.00  0.00    +0.000 C 
ENDBRANCH  35  37
ENDBRANCH   9  35
ENDBRANCH   6   9
ENDBRANCH   5   7
BRANCH   5  39
ATOM     39  C   UNL     1      44.258  75.318  44.276  0.00  0.00    +0.059 C 
BRANCH  39  40
ATOM     40  C   UNL     1      44.279  74.024  43.566  0.00  0.00    +0.001 A 
ATOM     41  C   UNL     1      43.097  73.246  43.445  0.00  0.00    +0.095 A 
ATOM     42  N   UNL     1      43.403  72.208  42.666  0.00  0.00    -0.244 NA
ATOM     43  C   UNL     1      44.684  72.275  42.292  0.00  0.00    +0.081 A 
ATOM     44  C   UNL     1      45.504  71.465  41.534  0.00  0.00    +0.019 A 
ATOM     45  C   UNL     1      46.841  71.791  41.354  0.00  0.00    +0.002 A 
ATOM     46  C   UNL     1      47.397  72.935  41.926  0.00  0.00    +0.000 A 
ATOM     47  C   UNL     1      46.573  73.731  42.673  0.00  0.00    +0.001 A 
ATOM     48  C   UNL     1      45.251  73.401  42.844  0.00  0.00    +0.015 A 
ENDBRANCH  39  40
ENDBRANCH   5  39
ENDBRANCH   2   5
ENDBRANCH   1   3
BRANCH   1  49
ATOM     49  N   UNL     1      44.446  77.300  40.423  0.00  0.00    -0.196 NA
ATOM     50  C   UNL     1      43.254  76.572  40.302  0.00  0.00    +0.264 C 
ATOM     51  O   UNL     1      42.526  76.437  41.348  0.00  0.00    -0.271 OA
BRANCH  50  52
ATOM     52  CA  UNL     1      42.740  75.935  39.067  0.00  0.00    +0.205 C 
BRANCH  52  53
ATOM     53  N   UNL     1      41.337  76.190  38.891  0.00  0.00    -0.194 NA
ATOM     54  C   UNL     1      40.874  77.158  37.925  0.00  0.00    +0.262 C 
ATOM     55  O   UNL     1      41.754  77.739  37.231  0.00  0.00    -0.271 OA
BRANCH  54  56
ATOM     56  CA  UNL     1      39.430  77.437  37.772  0.00  0.00    +0.177 C 
BRANCH  56  57
ATOM     57  N   UNL     1      38.881  76.847  36.575  0.00  0.00    -0.196 NA
ATOM     58  C   UNL     1      39.044  75.462  36.319  0.00  0.00    +0.262 C 
ATOM     59  O   UNL     1      39.579  74.735  37.205  0.00  0.00    -0.271 OA
BRANCH  58  60
ATOM     60  CA  UNL     1      38.632  74.798  35.081  0.00  0.00    +0.179 C 
BRANCH  60  61
ATOM     61  N   UNL     1      37.480  73.942  35.195  0.00  0.00    -0.196 NA
ATOM     62  C   UNL     1      36.219  74.308  34.629  0.00  0.00    +0.262 C 
ATOM     63  O   UNL     1      36.202  75.364  33.939  0.00  0.00    -0.271 OA
BRANCH  62  64
ATOM     64  CA  UNL     1      34.978  73.502  34.831  0.00  0.00    +0.173 C 
ATOM     65  C   UNL     1      34.906  72.408  33.789  0.00  0.00    +0.041 C 
ATOM     66  C   UNL     1      34.490  73.189  32.546  0.00  0.00    +0.089 C 
ATOM     67  C   UNL     1      33.503  74.130  33.144  0.00  0.00    +0.242 C 
ATOM     68  O   UNL     1      32.554  74.633  32.474  0.00  0.00    -0.273 OA
ATOM     69  N   UNL     1      33.838  74.320  34.517  0.00  0.00    -0.198 NA
ENDBRANCH  62  64
ENDBRANCH  60  61
BRANCH  60  70
ATOM     70  CB  UNL     1      39.838  73.976  34.616  0.00  0.00    +0.079 C 
BRANCH  70  71
ATOM     71  CG  UNL     1      39.719  73.548  33.208  0.00  0.00    +0.082 A 
ATOM     72  CD2 UNL     1      38.671  73.798  32.355  0.00  0.00    +0.115 A 
ATOM     73  NE2 UNL     1      39.007  73.209  31.178  0.00  0.00    -0.221 NA
ATOM     74  CE1 UNL     1      40.197  72.618  31.266  0.00  0.00    +0.199 A 
ATOM     75  ND1 UNL     1      40.626  72.833  32.521  0.00  0.00    -0.227 NA
ENDBRANCH  70  71
ENDBRANCH  60  70
ENDBRANCH  58  60
ENDBRANCH  56  57
BRANCH  56  76
ATOM     76  CB  UNL     1      39.165  78.925  37.890  0.00  0.00    +0.059 C 
BRANCH  76  77
ATOM     77  CG  UNL     1      37.763  79.289  38.072  0.00  0.00    +0.001 A 
ATOM     78  CD1 UNL     1      37.214  80.554  38.124  0.00  0.00    +0.095 A 
ATOM     79  NE1 UNL     1      35.899  80.447  38.324  0.00  0.00    -0.244 NA
ATOM     80  CE2 UNL     1      35.546  79.147  38.407  0.00  0.00    +0.081 A 
ATOM     81  CZ2 UNL     1      34.317  78.561  38.596  0.00  0.00    +0.019 A 
ATOM     82  CH2 UNL     1      34.248  77.184  38.629  0.00  0.00    +0.002 A 
ATOM     83  CZ3 UNL     1      35.361  76.385  38.480  0.00  0.00    +0.000 A 
ATOM     84  CE3 UNL     1      36.581  77.040  38.291  0.00  0.00    +0.001 A 
ATOM     85  CD2 UNL     1      36.697  78.414  38.252  0.00  0.00    +0.015 A 
ENDBRANCH  76  77
ENDBRANCH  56  76
ENDBRANCH  54  56
ENDBRANCH  52  53
BRANCH  52  86
ATOM     86  C   UNL     1      42.956  74.407  39.135  0.00  0.00    +0.213 C 
ATOM     87  O   UNL     1      44.292  74.119  39.341  0.00  0.00    -0.218 OA
ENDBRANCH  52  86
ENDBRANCH  50  52
ENDBRANCH   1  49
BRANCH   1  88
ATOM     88  C   UNL     1      46.292  78.616  41.308  0.00  0.00    +0.057 C 
BRANCH  88  89
ATOM     89  C   UNL     1      45.916  79.798  40.534  0.00  0.00    -0.020 A 
ATOM     90  C   UNL     1      45.797  79.649  39.168  0.00  0.00    -0.001 A 
ATOM     91  C   UNL     1      45.422  80.713  38.392  0.00  0.00    +0.042 A 
ATOM     92  C   UNL     1      45.153  81.956  38.939  0.00  0.00    +0.196 A 
ATOM     93  C   UNL     1      45.277  82.085  40.306  0.00  0.00    +0.042 A 
ATOM     94  C   UNL     1      45.651  81.024  41.086  0.00  0.00    -0.001 A 
ATOM     95  O   UNL     1      44.774  83.025  38.136  0.00  0.00    -0.287 OA
ENDBRANCH  88  89
ENDBRANCH   1  88
TORSDOF 33
