REMARK  Name = Trofosfamide
REMARK  7 active torsions:
REMARK  status: ('A' for Active; 'I' for Inactive)
REMARK    1  A    between atoms: N_3  and  C_15
REMARK    2  A    between atoms: P_4  and  N_8
REMARK    3  A    between atoms: N_8  and  C_9
REMARK    4  A    between atoms: N_8  and  C_12
REMARK    5  A    between atoms: C_9  and  C_10
REMARK    6  A    between atoms: C_12  and  C_13
REMARK    7  A    between atoms: C_15  and  C_16
REMARK                            x       y       z     vdW  Elec       q    Type
REMARK                         _______ _______ _______ _____ _____    ______ ____
ROOT
ATOM      1  C   UNL     1      51.333  82.346  42.423  0.00  0.00    +0.050 C 
ATOM      2  C   UNL     1      50.373  83.070  41.583  0.00  0.00    +0.084 C 
ATOM      3  N   UNL     1      49.028  82.684  41.581  0.00  0.00    -0.197 NA
ATOM      4  P   UNL     1      48.688  81.058  41.994  0.00  0.00    +0.352 P 
ATOM      5  O   UNL     1      48.043  81.041  43.381  0.00  0.00    -0.254 OA
ATOM      6  O   UNL     1      50.200  80.288  42.221  0.00  0.00    -0.292 OA
ATOM      7  C   UNL     1      50.851  81.136  43.148  0.00  0.00    +0.153 C 
ENDROOT
BRANCH   4   8
ATOM      8  N   UNL     1      47.650  80.199  40.938  0.00  0.00    -0.195 NA
BRANCH   8   9
ATOM      9  C   UNL     1      46.491  79.623  41.514  0.00  0.00    +0.099 C 
BRANCH   9  10
ATOM     10  C   UNL     1      45.921  78.455  40.767  0.00  0.00    +0.113 C 
ATOM     11 CL   UNL     1      44.641  77.698  41.761  0.00  0.00    -0.112 Cl
ENDBRANCH   9  10
ENDBRANCH   8   9
BRANCH   8  12
ATOM     12  C   UNL     1      47.393  80.948  39.752  0.00  0.00    +0.099 C 
BRANCH  12  13
ATOM     13  C   UNL     1      46.162  81.815  39.842  0.00  0.00    +0.113 C 
ATOM     14 CL   UNL     1      45.752  82.546  38.280  0.00  0.00    -0.112 Cl
ENDBRANCH  12  13
ENDBRANCH   8  12
ENDBRANCH   4   8
BRANCH   3  15
ATOM     15  C   UNL     1      48.049  83.640  41.916  0.00  0.00    +0.099 C 
BRANCH  15  16
ATOM     16  C   UNL     1      48.258  84.422  43.160  0.00  0.00    +0.113 C 
ATOM     17 CL   UNL     1      46.807  85.219  43.741  0.00  0.00    -0.112 Cl
ENDBRANCH  15  16
ENDBRANCH   3  15
TORSDOF 7
