REMARK  Name = Trofinetide
REMARK  7 active torsions:
REMARK  status: ('A' for Active; 'I' for Inactive)
REMARK    1  A    between atoms: C_2  and  C_11
REMARK    2  A    between atoms: C_7  and  C_9
REMARK    3  A    between atoms: N_13  and  CA_14
REMARK    4  A    between atoms: CA_14  and  CB_15
REMARK    5  A    between atoms: CA_14  and  C_20
REMARK    6  A    between atoms: CB_15  and  CG_16
REMARK    7  A    between atoms: CG_16  and  CD_17
REMARK                            x       y       z     vdW  Elec       q    Type
REMARK                         _______ _______ _______ _____ _____    ______ ____
ROOT
ATOM      1  C   UNK A   0      44.992  79.376  40.450  0.00  0.00    +0.258 C 
ATOM      2  O   UNK A   0      44.334  80.052  41.276  0.00  0.00    -0.272 OA
ATOM      3  N   GLU A   1      46.062  80.001  39.798  0.00  0.00    -0.194 NA
ENDROOT
BRANCH   1   5
ATOM      4  C   UNK A   0      45.823  77.108  39.923  0.00  0.00    +0.029 C 
ATOM      5  C   UNK A   0      44.588  77.953  40.220  0.00  0.00    +0.131 C 
ATOM      6  C   UNK A   0      43.702  77.965  38.991  0.00  0.00    +0.029 C 
ATOM      7  C   UNK A   0      42.325  78.043  39.540  0.00  0.00    +0.024 C 
ATOM      8  C   UNK A   0      42.393  77.757  40.993  0.00  0.00    +0.094 C 
ATOM      9  N   UNK A   0      43.778  77.435  41.255  0.00  0.00    -0.274 N 
ATOM     10  C   UNK A   0      44.179  76.730  42.410  0.00  0.00    +0.245 C 
ATOM     11  O   UNK A   0      45.427  76.873  42.740  0.00  0.00    -0.273 OA
BRANCH  10  12
ATOM     12  C   UNK A   0      43.377  75.866  43.272  0.00  0.00    +0.194 C 
ATOM     13  N   UNK A   0      44.206  75.494  44.447  0.00  0.00    -0.121 NA
ENDBRANCH  10  12
ENDBRANCH   1   5
BRANCH   3  14
ATOM     14  CA  GLU A   1      46.566  81.347  40.092  0.00  0.00    +0.198 C 
BRANCH  14  15
ATOM     15  C   GLU A   1      46.375  82.220  38.916  0.00  0.00    +0.384 C 
ATOM     16  O   GLU A   1      45.682  81.961  37.908  0.00  0.00    -0.244 OA
ATOM     17  OXT GLU A   1      47.031  83.470  38.916  0.00  0.00    -0.244 OA
ENDBRANCH  14  15
BRANCH  14  18
ATOM     18  CB  GLU A   1      47.971  81.326  40.530  0.00  0.00    +0.045 C 
BRANCH  18  19
ATOM     19  CG  GLU A   1      48.432  82.654  41.044  0.00  0.00    +0.116 C 
BRANCH  19  20
ATOM     20  CD  GLU A   1      49.846  82.536  41.548  0.00  0.00    +0.365 C 
ATOM     21  OE1 GLU A   1      50.441  81.458  41.339  0.00  0.00    -0.246 OA
ATOM     22  OE2 GLU A   1      50.475  83.554  42.210  0.00  0.00    -0.246 OA
ENDBRANCH  19  20
ENDBRANCH  18  19
ENDBRANCH  14  18
ENDBRANCH   3  14
TORSDOF 7
