REMARK  Name = Troleandomycin
REMARK  12 active torsions:
REMARK  status: ('A' for Active; 'I' for Inactive)
REMARK    1  A    between atoms: C_4  and  N_55
REMARK    2  A    between atoms: C_5  and  O_51
REMARK    3  A    between atoms: C_6  and  O_8
REMARK    4  A    between atoms: O_8  and  C_9
REMARK    5  A    between atoms: C_18  and  O_45
REMARK    6  A    between atoms: C_25  and  O_28
REMARK    7  A    between atoms: O_28  and  C_29
REMARK    8  A    between atoms: C_31  and  O_40
REMARK    9  A    between atoms: C_32  and  O_36
REMARK   10  A    between atoms: O_36  and  C_37
REMARK   11  A    between atoms: O_45  and  C_46
REMARK   12  A    between atoms: O_51  and  C_52
REMARK                            x       y       z     vdW  Elec       q    Type
REMARK                         _______ _______ _______ _____ _____    ______ ____
ROOT
ATOM      1  C   UNL     1      46.707  77.516  41.539  0.00  0.00    +0.120 C 
ATOM      2  C   UNL     1      46.067  77.510  42.842  0.00  0.00    +0.030 C 
ATOM      3  C   UNL     1      45.028  76.382  43.030  0.00  0.00    +0.039 C 
ATOM      4  C   UNL     1      43.640  76.708  42.717  0.00  0.00    +0.171 C 
ATOM      5  C   UNL     1      42.748  76.857  43.963  0.00  0.00    +0.177 C 
ATOM      6  O   UNL     1      42.972  77.852  43.048  0.00  0.00    -0.346 OA
ATOM      7  C   UNL     1      43.023  75.777  41.701  0.00  0.00    +0.180 C 
ATOM      8  O   UNL     1      42.353  74.865  42.147  0.00  0.00    -0.293 OA
ATOM      9  C   UNL     1      43.216  75.957  40.241  0.00  0.00    +0.100 C 
ATOM     10  C   UNL     1      42.035  76.664  39.684  0.00  0.00    +0.179 C 
ATOM     11  C   UNL     1      42.059  76.891  38.197  0.00  0.00    +0.081 C 
ATOM     12  C   UNL     1      43.381  77.521  37.822  0.00  0.00    +0.172 C 
ATOM     13  O   UNL     1      43.326  78.876  38.136  0.00  0.00    -0.452 OA
ATOM     14  C   UNL     1      44.183  79.728  38.705  0.00  0.00    +0.319 C 
ATOM     15  O   UNL     1      44.759  80.642  38.066  0.00  0.00    -0.250 OA
ATOM     16  C   UNL     1      44.542  79.681  40.176  0.00  0.00    +0.126 C 
ATOM     17  C   UNL     1      45.979  79.783  40.460  0.00  0.00    +0.131 C 
ATOM     18  C   UNL     1      46.804  78.546  40.559  0.00  0.00    +0.055 C 
ATOM     19  C   UNL     1      46.827  77.875  39.192  0.00  0.00    +0.005 C 
ATOM     20  C   UNL     1      43.823  80.960  40.684  0.00  0.00    +0.014 C 
ATOM     21  C   UNL     1      43.546  77.457  36.281  0.00  0.00    +0.047 C 
ATOM     22  C   UNL     1      40.992  77.963  37.913  0.00  0.00    +0.007 C 
ATOM     23  C   UNL     1      43.467  74.602  39.624  0.00  0.00    +0.012 C 
ATOM     24  C   UNL     1      45.622  78.733  43.541  0.00  0.00    +0.003 C 
ENDROOT
BRANCH   1  25
ATOM     25  O   UNL     1      48.080  77.103  41.747  0.00  0.00    -0.330 OA
BRANCH  25  31
ATOM     26  C   UNL     1      49.927  74.939  39.167  0.00  0.00    +0.032 C 
ATOM     27  C   UNL     1      49.685  75.804  40.365  0.00  0.00    +0.119 C 
ATOM     28  C   UNL     1      50.869  75.763  41.301  0.00  0.00    +0.049 C 
ATOM     29  C   UNL     1      51.383  77.162  41.451  0.00  0.00    +0.106 C 
ATOM     30  C   UNL     1      50.289  78.123  41.887  0.00  0.00    +0.239 C 
ATOM     31  C   UNL     1      49.000  77.868  41.107  0.00  0.00    +0.278 C 
ATOM     32  O   UNL     1      49.456  77.149  39.969  0.00  0.00    -0.330 OA
BRANCH  29  33
ATOM     33  N   UNL     1      52.492  77.319  42.339  0.00  0.00    -0.268 NA
ATOM     34  C   UNL     1      53.510  78.226  41.922  0.00  0.00    +0.090 C 
ATOM     35  C   UNL     1      52.169  77.385  43.731  0.00  0.00    +0.090 C 
ENDBRANCH  29  33
BRANCH  30  36
ATOM     36  O   UNL     1      50.819  79.415  41.642  0.00  0.00    -0.446 OA
BRANCH  36  37
ATOM     37  C   UNL     1      50.886  80.390  42.621  0.00  0.00    +0.318 C 
ATOM     38  O   UNL     1      50.876  79.992  43.816  0.00  0.00    -0.250 OA
ATOM     39  C   UNL     1      50.967  81.842  42.384  0.00  0.00    +0.121 C 
ENDBRANCH  36  37
ENDBRANCH  30  36
ENDBRANCH  25  31
ENDBRANCH   1  25
BRANCH  17  40
ATOM     40  O   UNL     1      46.321  80.641  41.526  0.00  0.00    -0.332 OA
BRANCH  40  41
ATOM     41  C   UNL     1      47.322  81.561  41.233  0.00  0.00    +0.238 C 
ATOM     42  C   UNL     1      46.783  82.928  41.549  0.00  0.00    +0.095 C 
ATOM     43  C   UNL     1      47.140  83.298  42.984  0.00  0.00    +0.163 C 
ATOM     44  C   UNL     1      48.619  83.578  42.962  0.00  0.00    +0.223 C 
ATOM     45  C   UNL     1      49.239  82.422  42.186  0.00  0.00    +0.160 C 
ATOM     46  O   UNL     1      48.424  81.327  42.074  0.00  0.00    -0.329 OA
ATOM     47  C   UNL     1      49.727  82.966  40.871  0.00  0.00    +0.036 C 
BRANCH  43  48
ATOM     48  O   UNL     1      46.336  84.291  43.441  0.00  0.00    -0.350 OA
ATOM     49  C   UNL     1      46.893  85.564  43.268  0.00  0.00    +0.174 C 
ENDBRANCH  43  48
BRANCH  44  50
ATOM     50  O   UNL     1      49.056  83.597  44.294  0.00  0.00    -0.447 OA
BRANCH  50  51
ATOM     51  C   UNL     1      50.242  84.277  44.617  0.00  0.00    +0.318 C 
ATOM     52  O   UNL     1      50.822  84.888  43.684  0.00  0.00    -0.250 OA
ATOM     53  C   UNL     1      50.762  84.252  46.028  0.00  0.00    +0.121 C 
ENDBRANCH  50  51
ENDBRANCH  44  50
ENDBRANCH  40  41
ENDBRANCH  17  40
BRANCH  10  54
ATOM     54  O   UNL     1      40.802  76.097  40.099  0.00  0.00    -0.452 OA
BRANCH  54  55
ATOM     55  C   UNL     1      40.338  74.849  39.725  0.00  0.00    +0.317 C 
ATOM     56  O   UNL     1      39.233  74.474  40.183  0.00  0.00    -0.250 OA
ATOM     57  C   UNL     1      41.113  73.981  38.814  0.00  0.00    +0.121 C 
ENDBRANCH  54  55
ENDBRANCH  10  54
TORSDOF 12
