REMARK  Name = Tropisetron
REMARK  3 active torsions:
REMARK  status: ('A' for Active; 'I' for Inactive)
REMARK    1  A    between atoms: C_8  and  O_10
REMARK    2  A    between atoms: O_10  and  C_11
REMARK    3  A    between atoms: C_11  and  C_13
REMARK                            x       y       z     vdW  Elec       q    Type
REMARK                         _______ _______ _______ _____ _____    ______ ____
ROOT
ATOM      1  C   UNL     1      44.250  79.671  39.296  0.00  0.00    +0.343 C 
ATOM      2  O   UNL     1      44.195  78.880  40.263  0.00  0.00    -0.245 OA
ENDROOT
BRANCH   1   3
ATOM      3  C   UNL     1      45.228  80.758  39.227  0.00  0.00    +0.096 A 
ATOM      4  C   UNL     1      45.273  81.789  38.310  0.00  0.00    +0.105 A 
ATOM      5  N   UNL     1      46.323  82.585  38.581  0.00  0.00    -0.244 NA
ATOM      6  C   UNL     1      46.998  82.125  39.661  0.00  0.00    +0.082 A 
ATOM      7  C   UNL     1      48.117  82.574  40.323  0.00  0.00    +0.019 A 
ATOM      8  C   UNL     1      48.563  81.866  41.412  0.00  0.00    +0.002 A 
ATOM      9  C   UNL     1      47.879  80.725  41.816  0.00  0.00    +0.000 A 
ATOM     10  C   UNL     1      46.761  80.276  41.155  0.00  0.00    +0.002 A 
ATOM     11  C   UNL     1      46.304  80.978  40.061  0.00  0.00    +0.025 A 
ENDBRANCH   1   3
BRANCH   1  12
ATOM     12  O   UNL     1      43.334  79.475  38.275  0.00  0.00    -0.449 OA
BRANCH  12  20
ATOM     13  C   UNL     1      40.601  75.052  37.215  0.00  0.00    +0.090 C 
ATOM     14  N   UNL     1      41.229  76.252  37.671  0.00  0.00    -0.274 NA
ATOM     15  C   UNL     1      40.305  77.365  37.820  0.00  0.00    +0.061 C 
ATOM     16  C   UNL     1      39.567  76.951  39.091  0.00  0.00    +0.017 C 
ATOM     17  C   UNL     1      40.734  76.539  39.970  0.00  0.00    +0.017 C 
ATOM     18  C   UNL     1      41.805  76.161  38.983  0.00  0.00    +0.061 C 
ATOM     19  C   UNL     1      42.900  77.219  39.076  0.00  0.00    +0.060 C 
ATOM     20  C   UNL     1      42.561  78.325  38.121  0.00  0.00    +0.172 C 
ATOM     21  C   UNL     1      41.067  78.619  38.120  0.00  0.00    +0.060 C 
ENDBRANCH  12  20
ENDBRANCH   1  12
TORSDOF 3
