REMARK  Name = Tropicamide
REMARK  6 active torsions:
REMARK  status: ('A' for Active; 'I' for Inactive)
REMARK    1  A    between atoms: C_2  and  N_3
REMARK    2  A    between atoms: N_3  and  C_4
REMARK    3  A    between atoms: C_4  and  C_5
REMARK    4  A    between atoms: C_11  and  C_13
REMARK    5  A    between atoms: C_13  and  C_14
REMARK    6  A    between atoms: C_13  and  C_16
REMARK                            x       y       z     vdW  Elec       q    Type
REMARK                         _______ _______ _______ _____ _____    ______ ____
ROOT
ATOM      1  N   UNL     1      48.278  81.269  42.089  0.00  0.00    -0.275 N 
ATOM      2  C   UNL     1      48.215  82.678  42.180  0.00  0.00    +0.232 C 
ATOM      3  O   UNL     1      47.490  83.324  41.348  0.00  0.00    -0.274 OA
ENDROOT
BRANCH   1   5
ATOM      4  C   UNL     1      50.320  80.093  41.287  0.00  0.00    +0.023 C 
ATOM      5  C   UNL     1      49.444  80.523  42.409  0.00  0.00    +0.094 C 
ENDBRANCH   1   5
BRANCH   1   6
ATOM      6  C   UNL     1      47.060  80.591  41.636  0.00  0.00    +0.120 C 
BRANCH   6   7
ATOM      7  C   UNL     1      46.480  81.158  40.421  0.00  0.00    +0.001 A 
ATOM      8  C   UNL     1      46.924  82.311  39.809  0.00  0.00    +0.018 A 
ATOM      9  C   UNL     1      46.315  82.784  38.649  0.00  0.00    +0.099 A 
ATOM     10  N   UNL     1      45.286  82.120  38.115  0.00  0.00    -0.242 NA
ATOM     11  C   UNL     1      44.823  81.007  38.667  0.00  0.00    +0.099 A 
ATOM     12  C   UNL     1      45.415  80.525  39.815  0.00  0.00    +0.018 A 
ENDBRANCH   6   7
ENDBRANCH   1   6
BRANCH   2  13
ATOM     13  C   UNL     1      48.944  83.467  43.180  0.00  0.00    +0.132 C 
BRANCH  13  14
ATOM     14  C   UNL     1      50.344  83.636  42.644  0.00  0.00    -0.011 A 
ATOM     15  C   UNL     1      50.531  84.103  41.350  0.00  0.00    -0.004 A 
ATOM     16  C   UNL     1      51.778  84.273  40.806  0.00  0.00    -0.000 A 
ATOM     17  C   UNL     1      52.857  83.958  41.604  0.00  0.00    -0.000 A 
ATOM     18  C   UNL     1      52.699  83.498  42.877  0.00  0.00    -0.000 A 
ATOM     19  C   UNL     1      51.417  83.329  43.422  0.00  0.00    -0.004 A 
ENDBRANCH  13  14
BRANCH  13  20
ATOM     20  C   UNL     1      48.328  84.864  43.262  0.00  0.00    +0.195 C 
ATOM     21  O   UNL     1      47.181  84.930  43.978  0.00  0.00    -0.220 OA
ENDBRANCH  13  20
ENDBRANCH   2  13
TORSDOF 6
