REMARK  Name = Trospium
REMARK  5 active torsions:
REMARK  status: ('A' for Active; 'I' for Inactive)
REMARK    1  A    between atoms: C_11  and  O_13
REMARK    2  A    between atoms: O_13  and  C_14
REMARK    3  A    between atoms: C_14  and  C_16
REMARK    4  A    between atoms: C_16  and  C_17
REMARK    5  A    between atoms: C_16  and  C_23
REMARK                            x       y       z     vdW  Elec       q    Type
REMARK                         _______ _______ _______ _____ _____    ______ ____
ROOT
ATOM      1  C   UNL     1      48.811  81.238  41.848  0.00  0.00    +0.353 C 
ATOM      2  O   UNL     1      48.994  80.888  40.643  0.00  0.00    -0.247 OA
ENDROOT
BRANCH   1   3
ATOM      3  C   UNL     1      49.765  82.124  42.518  0.00  0.00    +0.252 C 
ATOM      4  O   UNL     1      50.914  82.213  41.705  0.00  0.00    -0.205 OA
BRANCH   3   5
ATOM      5  C   UNL     1      50.233  81.568  43.828  0.00  0.00    +0.019 A 
ATOM      6  C   UNL     1      49.437  81.659  44.953  0.00  0.00    -0.001 A 
ATOM      7  C   UNL     1      49.865  81.147  46.165  0.00  0.00    -0.000 A 
ATOM      8  C   UNL     1      51.093  80.529  46.301  0.00  0.00    -0.000 A 
ATOM      9  C   UNL     1      51.897  80.432  45.183  0.00  0.00    -0.000 A 
ATOM     10  C   UNL     1      51.458  80.949  43.975  0.00  0.00    -0.001 A 
ENDBRANCH   3   5
BRANCH   3  11
ATOM     11  C   UNL     1      49.306  83.504  42.692  0.00  0.00    +0.019 A 
ATOM     12  C   UNL     1      47.986  83.815  42.436  0.00  0.00    -0.001 A 
ATOM     13  C   UNL     1      47.515  85.125  42.595  0.00  0.00    -0.000 A 
ATOM     14  C   UNL     1      48.356  86.130  43.010  0.00  0.00    -0.000 A 
ATOM     15  C   UNL     1      49.669  85.823  43.265  0.00  0.00    -0.000 A 
ATOM     16  C   UNL     1      50.119  84.532  43.105  0.00  0.00    -0.001 A 
ENDBRANCH   3  11
ENDBRANCH   1   3
BRANCH   1  17
ATOM     17  O   UNL     1      47.669  80.722  42.444  0.00  0.00    -0.450 OA
BRANCH  17  28
ATOM     18  C   UNL     1      43.205  77.866  39.900  0.00  0.00    -0.024 C 
ATOM     19  C   UNL     1      43.030  78.484  38.554  0.00  0.00    -0.024 C 
ATOM     20  C   UNL     1      43.846  79.753  38.651  0.00  0.00    -0.073 C 
ATOM     21  N   UNL     1      44.755  79.586  39.772  0.00  0.00    +0.393 N 
ATOM     22  C   UNL     1      44.613  78.270  40.285  0.00  0.00    -0.073 C 
ATOM     23  C   UNL     1      44.528  80.629  40.737  0.00  0.00    -0.051 C 
ATOM     24  C   UNL     1      44.959  81.870  39.958  0.00  0.00    -0.022 C 
ATOM     25  C   UNL     1      45.921  81.363  38.905  0.00  0.00    -0.022 C 
ATOM     26  C   UNL     1      46.074  79.907  39.293  0.00  0.00    -0.051 C 
ATOM     27  C   UNL     1      47.155  79.795  40.288  0.00  0.00    +0.023 C 
ATOM     28  C   UNL     1      46.747  79.921  41.727  0.00  0.00    +0.165 C 
ATOM     29  C   UNL     1      45.388  80.514  41.938  0.00  0.00    +0.023 C 
ENDBRANCH  17  28
ENDBRANCH   1  17
TORSDOF 5
