REMARK  Name = Trospium_chloride
REMARK  5 active torsions:
REMARK  status: ('A' for Active; 'I' for Inactive)
REMARK    1  A    between atoms: C_11  and  O_13
REMARK    2  A    between atoms: O_13  and  C_14
REMARK    3  A    between atoms: C_14  and  C_16
REMARK    4  A    between atoms: C_16  and  C_17
REMARK    5  A    between atoms: C_16  and  C_23
REMARK                            x       y       z     vdW  Elec       q    Type
REMARK                         _______ _______ _______ _____ _____    ______ ____
ROOT
ATOM      1  C   UNL     1      47.395  81.496  42.340  0.00  0.00    +0.353 C 
ATOM      2  O   UNL     1      46.679  81.635  43.357  0.00  0.00    -0.247 OA
ENDROOT
BRANCH   1   3
ATOM      3  C   UNL     1      48.774  82.003  42.293  0.00  0.00    +0.252 C 
ATOM      4  O   UNL     1      49.335  81.668  41.035  0.00  0.00    -0.205 OA
BRANCH   3   5
ATOM      5  C   UNL     1      48.856  83.494  42.359  0.00  0.00    +0.019 A 
ATOM      6  C   UNL     1      50.084  84.114  42.111  0.00  0.00    -0.001 A 
ATOM      7  C   UNL     1      50.211  85.479  42.158  0.00  0.00    -0.000 A 
ATOM      8  C   UNL     1      49.124  86.253  42.449  0.00  0.00    -0.000 A 
ATOM      9  C   UNL     1      47.905  85.685  42.697  0.00  0.00    -0.000 A 
ATOM     10  C   UNL     1      47.795  84.306  42.647  0.00  0.00    -0.001 A 
ENDBRANCH   3   5
BRANCH   3  11
ATOM     11  C   UNL     1      49.653  81.370  43.324  0.00  0.00    +0.019 A 
ATOM     12  C   UNL     1      50.884  80.834  42.986  0.00  0.00    -0.001 A 
ATOM     13  C   UNL     1      51.698  80.253  43.931  0.00  0.00    -0.000 A 
ATOM     14  C   UNL     1      51.327  80.177  45.256  0.00  0.00    -0.000 A 
ATOM     15  C   UNL     1      50.106  80.705  45.611  0.00  0.00    -0.000 A 
ATOM     16  C   UNL     1      49.288  81.289  44.661  0.00  0.00    -0.001 A 
ENDBRANCH   3  11
ENDBRANCH   1   3
BRANCH   1  17
ATOM     17  O   UNL     1      46.842  80.844  41.250  0.00  0.00    -0.450 OA
BRANCH  17  28
ATOM     18  C   UNL     1      41.709  78.748  39.681  0.00  0.00    -0.024 C 
ATOM     19  C   UNL     1      42.046  77.740  38.599  0.00  0.00    -0.024 C 
ATOM     20  C   UNL     1      43.496  78.107  38.305  0.00  0.00    -0.073 C 
ATOM     21  N   UNL     1      43.987  78.824  39.437  0.00  0.00    +0.393 N 
ATOM     22  C   UNL     1      43.000  78.734  40.492  0.00  0.00    -0.073 C 
ATOM     23  C   UNL     1      45.289  78.330  39.843  0.00  0.00    -0.051 C 
ATOM     24  C   UNL     1      46.270  78.962  38.872  0.00  0.00    -0.022 C 
ATOM     25  C   UNL     1      45.495  80.068  38.206  0.00  0.00    -0.022 C 
ATOM     26  C   UNL     1      44.279  80.194  39.118  0.00  0.00    -0.051 C 
ATOM     27  C   UNL     1      44.658  81.028  40.282  0.00  0.00    +0.023 C 
ATOM     28  C   UNL     1      45.518  80.363  41.308  0.00  0.00    +0.165 C 
ATOM     29  C   UNL     1      45.570  78.871  41.210  0.00  0.00    +0.023 C 
ENDBRANCH  17  28
ENDBRANCH   1  17
TORSDOF 5
REMARK  Name = Trospium_chloride
REMARK  5 active torsions:
REMARK  status: ('A' for Active; 'I' for Inactive)
REMARK    1  A    between atoms: C_11  and  O_13
REMARK    2  A    between atoms: O_13  and  C_14
REMARK    3  A    between atoms: C_14  and  C_16
REMARK    4  A    between atoms: C_16  and  C_17
REMARK    5  A    between atoms: C_16  and  C_23
REMARK                            x       y       z     vdW  Elec       q    Type
REMARK                         _______ _______ _______ _____ _____    ______ ____
ROOT
ATOM      1 CL   UNL     1      46.781  80.794  41.099  0.00  0.00    +0.000 Cl
ENDROOT
TORSDOF 0
