REMARK  Name = Trovafloxacin
REMARK  3 active torsions:
REMARK  status: ('A' for Active; 'I' for Inactive)
REMARK    1  A    between atoms: N_7  and  C_8
REMARK    2  A    between atoms: C_14  and  C_27
REMARK    3  A    between atoms: N_16  and  C_19
REMARK                            x       y       z     vdW  Elec       q    Type
REMARK                         _______ _______ _______ _____ _____    ______ ____
ROOT
ATOM      1  C   UNL     1      42.606  77.390  38.545  0.00  0.00    +0.161 A 
ATOM      2  C   UNL     1      42.527  78.401  37.623  0.00  0.00    +0.172 A 
ATOM      3  C   UNL     1      43.289  79.550  37.689  0.00  0.00    +0.039 A 
ATOM      4  C   UNL     1      44.165  79.661  38.747  0.00  0.00    +0.076 A 
ATOM      5  C   UNL     1      44.975  80.764  38.915  0.00  0.00    +0.206 A 
ATOM      6  O   UNL     1      44.922  81.698  38.089  0.00  0.00    -0.286 OA
ATOM      7  C   UNL     1      45.825  80.813  39.988  0.00  0.00    +0.136 A 
ATOM      8  C   UNL     1      45.853  79.750  40.886  0.00  0.00    +0.091 A 
ATOM      9  N   UNL     1      45.067  78.672  40.728  0.00  0.00    -0.288 N 
ATOM     10  C   UNL     1      44.236  78.634  39.671  0.00  0.00    +0.152 A 
ATOM     11  N   UNL     1      43.467  77.513  39.571  0.00  0.00    -0.211 NA
ATOM     12  F   UNL     1      41.672  78.276  36.603  0.00  0.00    -0.201 F 
ENDROOT
BRANCH   9  13
ATOM     13  C   UNL     1      45.144  77.611  41.688  0.00  0.00    +0.093 A 
ATOM     14  C   UNL     1      46.070  76.608  41.603  0.00  0.00    +0.158 A 
ATOM     15  C   UNL     1      46.077  75.630  42.563  0.00  0.00    +0.061 A 
ATOM     16  C   UNL     1      45.190  75.604  43.620  0.00  0.00    +0.142 A 
ATOM     17  C   UNL     1      44.268  76.632  43.676  0.00  0.00    +0.031 A 
ATOM     18  C   UNL     1      44.237  77.627  42.728  0.00  0.00    +0.022 A 
ATOM     19  F   UNL     1      45.233  74.611  44.553  0.00  0.00    -0.204 F 
ATOM     20  F   UNL     1      46.937  76.642  40.562  0.00  0.00    -0.203 F 
ENDBRANCH   9  13
BRANCH   1  27
ATOM     21  C   UNL     1      40.689  76.138  37.451  0.00  0.00    +0.094 C 
ATOM     22  C   UNL     1      39.593  75.619  38.390  0.00  0.00    +0.041 C 
ATOM     23  C   UNL     1      40.354  74.795  39.444  0.00  0.00    +0.041 C 
ATOM     24  C   UNL     1      39.387  74.158  38.526  0.00  0.00    +0.095 C 
ATOM     25  N   UNL     1      38.125  73.746  39.063  0.00  0.00    -0.133 NA
ATOM     26  C   UNL     1      41.801  74.972  39.078  0.00  0.00    +0.094 C 
ATOM     27  N   UNL     1      41.787  76.250  38.394  0.00  0.00    -0.291 N 
ENDBRANCH   1  27
BRANCH   7  28
ATOM     28  C   UNL     1      46.694  81.966  40.192  0.00  0.00    +0.392 C 
ATOM     29  O   UNL     1      47.423  82.029  41.197  0.00  0.00    -0.240 OA
ATOM     30  O   UNL     1      46.713  83.003  39.264  0.00  0.00    -0.240 OA
ENDBRANCH   7  28
TORSDOF 3
