REMARK  Name = Tubocurarine
REMARK  2 active torsions:
REMARK  status: ('A' for Active; 'I' for Inactive)
REMARK    1  A    between atoms: C_7  and  O_44
REMARK    2  A    between atoms: C_37  and  O_40
REMARK                            x       y       z     vdW  Elec       q    Type
REMARK                         _______ _______ _______ _____ _____    ______ ____
ROOT
ATOM      1  C   UNL     1      42.903  73.789  42.340  0.00  0.00    +0.090 C 
ATOM      2  N   UNL     1      42.976  74.745  41.279  0.00  0.00    -0.269 NA
ATOM      3  C   UNL     1      42.565  74.161  40.020  0.00  0.00    +0.077 C 
ATOM      4  C   UNL     1      41.583  75.004  39.287  0.00  0.00    +0.044 C 
ATOM      5  C   UNL     1      42.229  76.373  39.244  0.00  0.00    -0.020 A 
ATOM      6  C   UNL     1      42.366  76.921  38.000  0.00  0.00    +0.036 A 
ATOM      7  C   UNL     1      42.970  78.154  37.977  0.00  0.00    +0.173 A 
ATOM      8  C   UNL     1      43.408  78.796  39.136  0.00  0.00    +0.179 A 
ATOM      9  C   UNL     1      43.246  78.210  40.383  0.00  0.00    +0.037 A 
ATOM     10  C   UNL     1      42.655  76.984  40.456  0.00  0.00    -0.008 A 
ATOM     11  C   UNL     1      42.358  76.036  41.557  0.00  0.00    +0.084 C 
ATOM     12  C   UNL     1      42.654  76.323  42.971  0.00  0.00    +0.047 C 
ATOM     13  C   UNL     1      43.900  77.149  43.197  0.00  0.00    -0.020 A 
ATOM     14  C   UNL     1      45.088  76.736  42.673  0.00  0.00    -0.001 A 
ATOM     15  C   UNL     1      46.254  77.529  42.880  0.00  0.00    +0.037 A 
ATOM     16  C   UNL     1      46.272  78.690  43.575  0.00  0.00    +0.145 A 
ATOM     17  C   UNL     1      45.057  79.085  44.098  0.00  0.00    +0.037 A 
ATOM     18  C   UNL     1      43.881  78.324  43.912  0.00  0.00    -0.001 A 
ATOM     19  O   UNL     1      47.332  79.502  43.814  0.00  0.00    -0.451 OA
ATOM     20  C   UNL     1      48.607  79.692  44.151  0.00  0.00    +0.181 A 
ATOM     21  C   UNL     1      49.551  79.911  43.073  0.00  0.00    -0.007 A 
ATOM     22  C   UNL     1      49.031  79.942  41.669  0.00  0.00    -0.024 C 
ATOM     23  C   UNL     1      48.252  81.162  41.477  0.00  0.00    +0.011 C 
ATOM     24  C   UNL     1      47.089  81.256  40.563  0.00  0.00    -0.021 A 
ATOM     25  C   UNL     1      46.101  80.355  40.233  0.00  0.00    +0.036 A 
ATOM     26  C   UNL     1      45.100  80.747  39.350  0.00  0.00    +0.184 A 
ATOM     27  C   UNL     1      45.100  82.037  38.806  0.00  0.00    +0.230 A 
ATOM     28  C   UNL     1      46.063  82.960  39.109  0.00  0.00    +0.045 A 
ATOM     29  C   UNL     1      47.028  82.547  39.976  0.00  0.00    -0.001 A 
ATOM     30  O   UNL     1      44.102  82.478  37.903  0.00  0.00    -0.283 OA
ATOM     31  O   UNL     1      44.005  80.032  38.871  0.00  0.00    -0.447 OA
ATOM     32  N   UNL     1      50.036  79.607  40.750  0.00  0.00    +0.391 N 
ATOM     33  C   UNL     1      51.346  79.328  41.254  0.00  0.00    -0.068 C 
ATOM     34  C   UNL     1      51.814  80.306  42.292  0.00  0.00    +0.004 C 
ATOM     35  C   UNL     1      50.837  80.099  43.425  0.00  0.00    -0.024 A 
ATOM     36  C   UNL     1      51.334  80.103  44.735  0.00  0.00    +0.036 A 
ATOM     37  C   UNL     1      50.461  79.900  45.758  0.00  0.00    +0.180 A 
ATOM     38  C   UNL     1      49.139  79.703  45.453  0.00  0.00    +0.263 A 
ATOM     39  O   UNL     1      48.262  79.499  46.547  0.00  0.00    -0.280 OA
ATOM     40  C   UNL     1      50.241  80.687  39.762  0.00  0.00    -0.095 C 
ATOM     41  C   UNL     1      49.700  78.417  39.932  0.00  0.00    -0.095 C 
ENDROOT
BRANCH  37  42
ATOM     42  O   UNL     1      50.883  79.893  47.063  0.00  0.00    -0.468 OA
ATOM     43  C   UNL     1      51.937  80.762  47.511  0.00  0.00    +0.253 C 
ENDBRANCH  37  42
BRANCH   7  44
ATOM     44  O   UNL     1      43.118  78.730  36.697  0.00  0.00    -0.468 OA
ATOM     45  C   UNL     1      42.122  78.533  35.734  0.00  0.00    +0.253 C 
ENDBRANCH   7  44
TORSDOF 2
