REMARK  Name = Tucatinib
REMARK  4 active torsions:
REMARK  status: ('A' for Active; 'I' for Inactive)
REMARK    1  A    between atoms: C_3  and  O_27
REMARK    2  A    between atoms: C_6  and  N_8
REMARK    3  A    between atoms: C_16  and  N_19
REMARK    4  A    between atoms: O_27  and  C_28
REMARK                            x       y       z     vdW  Elec       q    Type
REMARK                         _______ _______ _______ _____ _____    ______ ____
ROOT
ATOM      1  N   UNL     1      44.885  78.355  40.112  0.00  0.00    -0.194 NA
ATOM      2  C   UNL     1      44.892  79.564  39.382  0.00  0.00    +0.155 A 
ATOM      3  N   UNL     1      44.119  79.819  38.348  0.00  0.00    -0.207 NA
ATOM      4  C   UNL     1      44.100  80.932  37.666  0.00  0.00    +0.200 A 
ATOM      5  N   UNL     1      44.955  81.911  38.060  0.00  0.00    -0.224 NA
ATOM      6  C   UNL     1      45.792  81.777  39.095  0.00  0.00    +0.086 A 
ATOM      7  C   UNL     1      45.778  80.569  39.794  0.00  0.00    +0.052 A 
ATOM      8  C   UNL     1      46.633  80.434  40.857  0.00  0.00    +0.021 A 
ATOM      9  C   UNL     1      47.522  81.435  41.285  0.00  0.00    +0.075 A 
ATOM     10  C   UNL     1      47.515  82.604  40.582  0.00  0.00    +0.018 A 
ATOM     11  C   UNL     1      46.653  82.773  39.492  0.00  0.00    +0.021 A 
ENDROOT
BRANCH   9  12
ATOM     12  N   UNL     1      48.383  81.221  42.379  0.00  0.00    -0.162 NA
ATOM     13  C   UNL     1      49.472  82.059  42.713  0.00  0.00    +0.304 C 
ATOM     14  N   UNL     1      49.769  83.149  42.113  0.00  0.00    -0.223 NA
ATOM     15  C   UNL     1      50.936  83.794  42.683  0.00  0.00    +0.129 C 
ATOM     16  C   UNL     1      51.355  82.884  43.784  0.00  0.00    +0.231 C 
ATOM     17  O   UNL     1      50.406  81.837  43.755  0.00  0.00    -0.447 OA
ATOM     18  C   UNL     1      50.423  85.145  43.217  0.00  0.00    +0.028 C 
ATOM     19  C   UNL     1      51.950  84.027  41.617  0.00  0.00    +0.028 C 
ENDBRANCH   9  12
BRANCH   1  25
ATOM     20  C   UNL     1      40.520  77.575  38.161  0.00  0.00    +0.034 C 
ATOM     21  C   UNL     1      41.558  77.127  39.142  0.00  0.00    +0.014 A 
ATOM     22  C   UNL     1      41.340  76.025  39.928  0.00  0.00    +0.141 A 
ATOM     23  C   UNL     1      42.361  75.680  40.825  0.00  0.00    +0.038 A 
ATOM     24  C   UNL     1      43.517  76.425  40.892  0.00  0.00    +0.020 A 
ATOM     25  C   UNL     1      43.750  77.520  40.121  0.00  0.00    +0.072 A 
ATOM     26  C   UNL     1      42.712  77.845  39.231  0.00  0.00    +0.015 A 
BRANCH  22  27
ATOM     27  O   UNL     1      40.208  75.236  39.911  0.00  0.00    -0.454 OA
BRANCH  27  28
ATOM     28  C   UNL     1      39.996  74.208  39.048  0.00  0.00    +0.150 A 
ATOM     29  C   UNL     1      41.009  73.951  38.107  0.00  0.00    +0.076 A 
ATOM     30  C   UNL     1      40.877  72.930  37.198  0.00  0.00    +0.169 A 
ATOM     31  N   UNL     1      41.698  72.496  36.214  0.00  0.00    -0.203 NA
ATOM     32  C   UNL     1      41.080  71.459  35.621  0.00  0.00    +0.221 A 
ATOM     33  N   UNL     1      39.903  71.247  36.216  0.00  0.00    -0.141 NA
ATOM     34  N   UNL     1      39.784  72.141  37.170  0.00  0.00    -0.209 N 
ATOM     35  C   UNL     1      38.799  72.361  38.058  0.00  0.00    +0.105 A 
ATOM     36  C   UNL     1      38.893  73.397  39.008  0.00  0.00    +0.058 A 
ENDBRANCH  27  28
ENDBRANCH  22  27
ENDBRANCH   1  25
TORSDOF 4
