REMARK  Name = Ubrogepant
REMARK  5 active torsions:
REMARK  status: ('A' for Active; 'I' for Inactive)
REMARK    1  A    between atoms: C_3  and  C_35
REMARK    2  A    between atoms: C_5  and  N_14
REMARK    3  A    between atoms: N_8  and  C_9
REMARK    4  A    between atoms: C_9  and  C_10
REMARK    5  A    between atoms: C_15  and  C_17
REMARK                            x       y       z     vdW  Elec       q    Type
REMARK                         _______ _______ _______ _____ _____    ______ ____
ROOT
ATOM      1  N   UNL     1      45.725  80.753  39.589  0.00  0.00    -0.194 NA
ATOM      2  C   UNL     1      44.324  80.661  39.467  0.00  0.00    +0.267 C 
ATOM      3  O   UNL     1      43.702  81.754  39.354  0.00  0.00    -0.268 OA
ENDROOT
BRANCH   2   4
ATOM      4  C   UNL     1      43.584  79.421  39.463  0.00  0.00    +0.074 A 
ATOM      5  C   UNL     1      42.866  78.983  38.379  0.00  0.00    +0.003 A 
ATOM      6  C   UNL     1      42.174  77.794  38.417  0.00  0.00    -0.008 A 
ATOM      7  C   UNL     1      42.195  77.025  39.554  0.00  0.00    +0.056 A 
ATOM      8  C   UNL     1      41.362  75.794  39.316  0.00  0.00    +0.059 C 
ATOM      9  C   UNL     1      40.442  76.256  38.222  0.00  0.00    +0.102 C 
ATOM     10  C   UNL     1      41.346  77.137  37.379  0.00  0.00    +0.041 C 
ATOM     11  C   UNL     1      39.267  76.972  38.732  0.00  0.00    +0.020 A 
ATOM     12  C   UNL     1      38.138  76.333  38.294  0.00  0.00    +0.151 A 
ATOM     13  N   UNL     1      38.493  75.217  37.512  0.00  0.00    -0.160 NA
ATOM     14  C   UNL     1      39.903  75.118  37.433  0.00  0.00    +0.251 C 
ATOM     15  O   UNL     1      40.616  74.274  36.838  0.00  0.00    -0.273 OA
ATOM     16  N   UNL     1      36.916  76.789  38.622  0.00  0.00    -0.228 NA
ATOM     17  C   UNL     1      36.758  77.869  39.378  0.00  0.00    +0.100 A 
ATOM     18  C   UNL     1      37.865  78.545  39.841  0.00  0.00    +0.020 A 
ATOM     19  C   UNL     1      39.122  78.086  39.511  0.00  0.00    +0.001 A 
ATOM     20  N   UNL     1      42.896  77.455  40.610  0.00  0.00    -0.248 NA
ATOM     21  C   UNL     1      43.575  78.616  40.579  0.00  0.00    +0.103 A 
ENDBRANCH   2   4
BRANCH   1  26
ATOM     22  C   UNL     1      50.350  81.119  42.639  0.00  0.00    +0.022 C 
ATOM     23  C   UNL     1      49.146  81.002  41.801  0.00  0.00    +0.080 C 
ATOM     24  C   UNL     1      48.017  81.893  42.332  0.00  0.00    +0.043 C 
ATOM     25  C   UNL     1      47.025  82.051  41.204  0.00  0.00    +0.037 C 
ATOM     26  C   UNL     1      46.390  80.720  40.885  0.00  0.00    +0.172 C 
ATOM     27  C   UNL     1      47.339  79.597  40.984  0.00  0.00    +0.246 C 
ATOM     28  O   UNL     1      47.003  78.511  40.421  0.00  0.00    -0.273 OA
ATOM     29  N   UNL     1      48.591  79.679  41.671  0.00  0.00    -0.272 N 
BRANCH  24  30
ATOM     30  C   UNL     1      48.531  83.192  42.783  0.00  0.00    -0.021 A 
ATOM     31  C   UNL     1      47.666  84.078  43.384  0.00  0.00    -0.004 A 
ATOM     32  C   UNL     1      48.057  85.323  43.841  0.00  0.00    -0.000 A 
ATOM     33  C   UNL     1      49.372  85.680  43.682  0.00  0.00    -0.000 A 
ATOM     34  C   UNL     1      50.247  84.802  43.083  0.00  0.00    -0.000 A 
ATOM     35  C   UNL     1      49.849  83.563  42.630  0.00  0.00    -0.004 A 
ENDBRANCH  24  30
BRANCH  29  36
ATOM     36  C   UNL     1      49.179  78.473  42.162  0.00  0.00    +0.197 C 
BRANCH  36  37
ATOM     37  C   UNL     1      50.394  78.067  41.323  0.00  0.00    +0.416 C 
ATOM     38  F   UNL     1      51.430  78.937  41.444  0.00  0.00    -0.168 F 
ATOM     39  F   UNL     1      49.954  77.909  40.024  0.00  0.00    -0.168 F 
ATOM     40  F   UNL     1      50.754  76.793  41.780  0.00  0.00    -0.168 F 
ENDBRANCH  36  37
ENDBRANCH  29  36
ENDBRANCH   1  26
TORSDOF 5
