REMARK  Name = Udenafil
REMARK  11 active torsions:
REMARK  status: ('A' for Active; 'I' for Inactive)
REMARK    1  A    between atoms: C_2  and  C_3
REMARK    2  A    between atoms: C_3  and  C_4
REMARK    3  A    between atoms: C_10  and  C_14
REMARK    4  A    between atoms: C_15  and  O_32
REMARK    5  A    between atoms: C_18  and  S_20
REMARK    6  A    between atoms: S_20  and  N_23
REMARK    7  A    between atoms: N_23  and  C_24
REMARK    8  A    between atoms: C_24  and  C_25
REMARK    9  A    between atoms: C_25  and  C_26
REMARK   10  A    between atoms: O_32  and  C_33
REMARK   11  A    between atoms: C_33  and  C_34
REMARK                            x       y       z     vdW  Elec       q    Type
REMARK                         _______ _______ _______ _____ _____    ______ ____
ROOT
ATOM      1  C   UNL     1      48.388  82.112  42.064  0.00  0.00    +0.071 A 
ATOM      2  C   UNL     1      49.203  83.060  41.497  0.00  0.00    +0.141 A 
ATOM      3  C   UNL     1      50.211  83.696  42.201  0.00  0.00    +0.038 A 
ATOM      4  C   UNL     1      50.413  83.374  43.509  0.00  0.00    +0.023 A 
ATOM      5  C   UNL     1      49.641  82.445  44.122  0.00  0.00    +0.124 A 
ATOM      6  C   UNL     1      48.638  81.825  43.393  0.00  0.00    +0.026 A 
ENDROOT
BRANCH   1  13
ATOM      7  C   UNL     1      45.155  78.420  41.197  0.00  0.00    +0.098 A 
ATOM      8  N   UNL     1      44.267  78.330  40.181  0.00  0.00    -0.172 NA
ATOM      9  N   UNL     1      44.332  79.407  39.428  0.00  0.00    -0.243 N 
ATOM     10  C   UNL     1      45.266  80.255  39.913  0.00  0.00    +0.154 A 
ATOM     11  C   UNL     1      45.788  79.632  41.033  0.00  0.00    +0.120 A 
ATOM     12  N   UNL     1      46.772  80.281  41.703  0.00  0.00    -0.223 NA
ATOM     13  C   UNL     1      47.269  81.478  41.352  0.00  0.00    +0.169 A 
ATOM     14  N   UNL     1      46.726  82.040  40.258  0.00  0.00    -0.187 NA
ATOM     15  C   UNL     1      45.745  81.481  39.522  0.00  0.00    +0.299 A 
ATOM     16  O   UNL     1      45.257  82.022  38.510  0.00  0.00    -0.263 OA
ATOM     17  C   UNL     1      43.544  79.686  38.249  0.00  0.00    +0.154 C 
BRANCH   7  18
ATOM     18  C   UNL     1      45.339  77.392  42.244  0.00  0.00    +0.049 C 
BRANCH  18  20
ATOM     19  C   UNL     1      44.851  76.717  44.520  0.00  0.00    +0.000 C 
ATOM     20  C   UNL     1      45.030  77.912  43.637  0.00  0.00    +0.006 C 
ENDBRANCH  18  20
ENDBRANCH   7  18
ENDBRANCH   1  13
BRANCH   5  21
ATOM     21  S   UNL     1      49.906  82.030  45.812  0.00  0.00    +0.077 S 
ATOM     22  O   UNL     1      48.606  81.555  46.361  0.00  0.00    -0.152 OA
ATOM     23  O   UNL     1      50.285  83.285  46.548  0.00  0.00    -0.152 OA
BRANCH  21  24
ATOM     24  N   UNL     1      51.076  80.804  45.997  0.00  0.00    -0.078 NA
BRANCH  24  25
ATOM     25  C   UNL     1      52.346  81.304  46.476  0.00  0.00    +0.117 C 
BRANCH  25  26
ATOM     26  C   UNL     1      52.636  80.884  47.876  0.00  0.00    +0.037 C 
BRANCH  26  27
ATOM     27  C   UNL     1      54.003  81.197  48.376  0.00  0.00    +0.059 C 
ATOM     28  C   UNL     1      54.211  82.659  48.556  0.00  0.00    +0.017 C 
ATOM     29  C   UNL     1      55.219  82.763  49.686  0.00  0.00    +0.019 C 
ATOM     30  C   UNL     1      54.981  81.505  50.460  0.00  0.00    +0.072 C 
ATOM     31  N   UNL     1      54.319  80.553  49.627  0.00  0.00    -0.273 NA
ATOM     32  C   UNL     1      55.244  79.469  49.343  0.00  0.00    +0.090 C 
ENDBRANCH  26  27
ENDBRANCH  25  26
ENDBRANCH  24  25
ENDBRANCH  21  24
ENDBRANCH   5  21
BRANCH   2  33
ATOM     33  O   UNL     1      49.013  83.397  40.142  0.00  0.00    -0.475 OA
BRANCH  33  34
ATOM     34  C   UNL     1      49.944  84.273  39.562  0.00  0.00    +0.205 C 
BRANCH  34  35
ATOM     35  C   UNL     1      50.050  84.194  38.074  0.00  0.00    +0.047 C 
ATOM     36  C   UNL     1      48.734  84.608  37.426  0.00  0.00    +0.004 C 
ENDBRANCH  34  35
ENDBRANCH  33  34
ENDBRANCH   2  33
TORSDOF 11
