REMARK  Name = UFT
REMARK  1 active torsions:
REMARK  status: ('A' for Active; 'I' for Inactive)
REMARK    1  A    between atoms: C_3  and  N_6
REMARK                            x       y       z     vdW  Elec       q    Type
REMARK                         _______ _______ _______ _____ _____    ______ ____
ROOT
ATOM      1  N   UNL     1      46.242  80.265  39.915  0.00  0.00    -0.253 N 
ATOM      2  C   UNL     1      46.790  80.276  41.156  0.00  0.00    +0.117 A 
ATOM      3  C   UNL     1      47.408  81.413  41.657  0.00  0.00    +0.215 A 
ATOM      4  C   UNL     1      47.451  82.533  40.862  0.00  0.00    +0.312 A 
ATOM      5  O   UNL     1      48.011  83.568  41.312  0.00  0.00    -0.263 OA
ATOM      6  N   UNL     1      46.907  82.507  39.642  0.00  0.00    -0.151 NA
ATOM      7  C   UNL     1      46.311  81.386  39.178  0.00  0.00    +0.355 A 
ATOM      8  O   UNL     1      45.811  81.421  38.013  0.00  0.00    -0.244 OA
ATOM      9  F   UNL     1      47.947  81.385  42.906  0.00  0.00    -0.197 F 
ENDROOT
BRANCH   1  12
ATOM     10  C   UNL     1      44.914  77.803  41.227  0.00  0.00    +0.037 C 
ATOM     11  C   UNL     1      46.056  77.852  40.201  0.00  0.00    +0.057 C 
ATOM     12  C   UNL     1      45.594  79.055  39.406  0.00  0.00    +0.208 C 
ATOM     13  O   UNL     1      44.240  79.162  39.561  0.00  0.00    -0.335 OA
ATOM     14  C   UNL     1      43.768  78.070  40.240  0.00  0.00    +0.144 C 
ENDBRANCH   1  12
TORSDOF 1
REMARK  Name = UFT
REMARK  1 active torsions:
REMARK  status: ('A' for Active; 'I' for Inactive)
REMARK    1  A    between atoms: C_3  and  N_6
REMARK                            x       y       z     vdW  Elec       q    Type
REMARK                         _______ _______ _______ _____ _____    ______ ____
ROOT
ATOM      1  C   UNL     1      46.359  79.553  39.045  0.00  0.00    +0.083 A 
ATOM      2  C   UNL     1      45.095  79.050  39.255  0.00  0.00    +0.109 A 
ATOM      3  N   UNL     1      44.253  79.637  40.145  0.00  0.00    -0.189 NA
ATOM      4  C   UNL     1      44.664  80.718  40.824  0.00  0.00    +0.371 A 
ATOM      5  O   UNL     1      43.875  81.235  41.631  0.00  0.00    -0.243 OA
ATOM      6  N   UNL     1      45.895  81.241  40.646  0.00  0.00    -0.152 NA
ATOM      7  C   UNL     1      46.746  80.675  39.769  0.00  0.00    +0.285 A 
ATOM      8  O   UNL     1      47.884  81.158  39.604  0.00  0.00    -0.265 OA
ENDROOT
TORSDOF 0
