REMARK  Name = Ulipristal
REMARK  3 active torsions:
REMARK  status: ('A' for Active; 'I' for Inactive)
REMARK    1  A    between atoms: C_2  and  C_4
REMARK    2  A    between atoms: C_10  and  C_22
REMARK    3  A    between atoms: C_25  and  N_28
REMARK                            x       y       z     vdW  Elec       q    Type
REMARK                         _______ _______ _______ _____ _____    ______ ____
ROOT
ATOM      1  C   UNL     1      49.764  82.415  44.132  0.00  0.00    +0.177 C 
ATOM      2  C   UNL     1      50.967  83.227  43.731  0.00  0.00    +0.038 C 
ATOM      3  C   UNL     1      50.929  83.062  42.206  0.00  0.00    +0.003 C 
ATOM      4  C   UNL     1      50.379  81.686  41.928  0.00  0.00    +0.007 C 
ATOM      5  C   UNL     1      49.933  81.176  43.251  0.00  0.00    +0.033 C 
ATOM      6  C   UNL     1      48.683  80.406  43.350  0.00  0.00    +0.011 C 
ATOM      7  C   UNL     1      48.297  79.810  41.980  0.00  0.00    +0.040 C 
ATOM      8  C   UNL     1      48.112  80.982  41.165  0.00  0.00    -0.045 C 
ATOM      9  C   UNL     1      47.001  81.506  40.778  0.00  0.00    -0.033 C 
ATOM     10  C   UNL     1      45.699  80.956  41.124  0.00  0.00    +0.034 C 
ATOM     11  C   UNL     1      44.941  80.864  39.762  0.00  0.00    +0.074 C 
ATOM     12  C   UNL     1      44.861  82.143  39.078  0.00  0.00    +0.173 C 
ATOM     13  O   UNL     1      43.831  82.427  38.424  0.00  0.00    -0.291 OA
ATOM     14  C   UNL     1      45.977  83.065  39.167  0.00  0.00    +0.033 C 
ATOM     15  C   UNL     1      46.963  82.768  39.953  0.00  0.00    -0.024 C 
ATOM     16  C   UNL     1      48.149  83.646  40.127  0.00  0.00    +0.026 C 
ATOM     17  C   UNL     1      49.319  82.721  39.862  0.00  0.00    +0.009 C 
ATOM     18  C   UNL     1      49.470  81.590  40.771  0.00  0.00    +0.019 C 
ATOM     19  C   UNL     1      51.014  80.330  43.924  0.00  0.00    +0.003 C 
ATOM     20  O   UNL     1      48.605  83.109  43.761  0.00  0.00    -0.218 OA
ENDROOT
BRANCH   7  21
ATOM     21  C   UNL     1      47.458  78.672  42.080  0.00  0.00    -0.019 A 
ATOM     22  C   UNL     1      46.739  78.404  43.228  0.00  0.00    -0.003 A 
ATOM     23  C   UNL     1      45.868  77.353  43.367  0.00  0.00    +0.014 A 
ATOM     24  C   UNL     1      45.687  76.498  42.301  0.00  0.00    +0.048 A 
ATOM     25  C   UNL     1      46.393  76.745  41.145  0.00  0.00    +0.014 A 
ATOM     26  C   UNL     1      47.260  77.806  41.035  0.00  0.00    -0.003 A 
BRANCH  24  27
ATOM     27  N   UNL     1      44.783  75.390  42.414  0.00  0.00    -0.304 N 
ATOM     28  C   UNL     1      44.297  74.758  41.224  0.00  0.00    +0.112 C 
ATOM     29  C   UNL     1      44.359  74.907  43.713  0.00  0.00    +0.112 C 
ENDBRANCH  24  27
ENDBRANCH   7  21
BRANCH   1  31
ATOM     30  C   UNL     1      50.468  80.898  46.035  0.00  0.00    +0.075 C 
ATOM     31  C   UNL     1      49.788  82.143  45.565  0.00  0.00    +0.178 C 
ATOM     32  O   UNL     1      49.271  82.906  46.352  0.00  0.00    -0.293 OA
ENDBRANCH   1  31
TORSDOF 3
