REMARK  Name = Umeclidinium
REMARK  8 active torsions:
REMARK  status: ('A' for Active; 'I' for Inactive)
REMARK    1  A    between atoms: N_3  and  C_23
REMARK    2  A    between atoms: C_6  and  C_9
REMARK    3  A    between atoms: C_9  and  C_10
REMARK    4  A    between atoms: C_9  and  C_16
REMARK    5  A    between atoms: C_23  and  C_24
REMARK    6  A    between atoms: C_24  and  O_25
REMARK    7  A    between atoms: O_25  and  C_26
REMARK    8  A    between atoms: C_26  and  C_27
REMARK                            x       y       z     vdW  Elec       q    Type
REMARK                         _______ _______ _______ _____ _____    ______ ____
ROOT
ATOM      1  C   UNL     1      44.079  79.621  40.653  0.00  0.00    -0.019 C 
ATOM      2  C   UNL     1      44.717  80.975  40.435  0.00  0.00    -0.073 C 
ATOM      3  N   UNL     1      45.952  80.853  39.660  0.00  0.00    +0.392 N 
ATOM      4  C   UNL     1      45.562  80.573  38.285  0.00  0.00    -0.073 C 
ATOM      5  C   UNL     1      44.312  79.672  38.287  0.00  0.00    -0.019 C 
ATOM      6  C   UNL     1      44.481  78.736  39.409  0.00  0.00    +0.027 C 
ATOM      7  C   UNL     1      45.950  78.478  39.664  0.00  0.00    -0.019 C 
ATOM      8  C   UNL     1      46.640  79.714  40.271  0.00  0.00    -0.073 C 
ENDROOT
BRANCH   6   9
ATOM      9  C   UNL     1      43.718  77.487  39.457  0.00  0.00    +0.164 C 
ATOM     10  O   UNL     1      44.404  76.486  38.700  0.00  0.00    -0.217 OA
BRANCH   9  11
ATOM     11  C   UNL     1      42.343  77.398  39.012  0.00  0.00    +0.009 A 
ATOM     12  C   UNL     1      41.914  77.334  37.729  0.00  0.00    -0.002 A 
ATOM     13  C   UNL     1      40.563  77.254  37.463  0.00  0.00    -0.000 A 
ATOM     14  C   UNL     1      39.628  77.236  38.469  0.00  0.00    -0.000 A 
ATOM     15  C   UNL     1      40.050  77.300  39.794  0.00  0.00    -0.000 A 
ATOM     16  C   UNL     1      41.384  77.379  40.033  0.00  0.00    -0.002 A 
ENDBRANCH   9  11
BRANCH   9  17
ATOM     17  C   UNL     1      43.814  76.978  40.885  0.00  0.00    +0.009 A 
ATOM     18  C   UNL     1      43.742  77.818  41.961  0.00  0.00    -0.002 A 
ATOM     19  C   UNL     1      43.839  77.296  43.243  0.00  0.00    -0.000 A 
ATOM     20  C   UNL     1      44.005  75.961  43.485  0.00  0.00    -0.000 A 
ATOM     21  C   UNL     1      44.078  75.110  42.414  0.00  0.00    -0.000 A 
ATOM     22  C   UNL     1      43.980  75.638  41.134  0.00  0.00    -0.002 A 
ENDBRANCH   9  17
ENDBRANCH   6   9
BRANCH   3  23
ATOM     23  C   UNL     1      46.695  82.055  39.795  0.00  0.00    -0.040 C 
BRANCH  23  24
ATOM     24  C   UNL     1      46.785  82.615  41.188  0.00  0.00    +0.121 C 
BRANCH  24  25
ATOM     25  O   UNL     1      48.092  82.652  41.620  0.00  0.00    -0.351 OA
BRANCH  25  26
ATOM     26  C   UNL     1      48.486  83.880  42.084  0.00  0.00    +0.168 C 
BRANCH  26  27
ATOM     27  C   UNL     1      49.832  83.915  42.673  0.00  0.00    +0.007 A 
ATOM     28  C   UNL     1      50.111  84.456  43.924  0.00  0.00    -0.002 A 
ATOM     29  C   UNL     1      51.392  84.464  44.432  0.00  0.00    -0.000 A 
ATOM     30  C   UNL     1      52.427  83.938  43.718  0.00  0.00    -0.000 A 
ATOM     31  C   UNL     1      52.187  83.394  42.475  0.00  0.00    -0.000 A 
ATOM     32  C   UNL     1      50.901  83.394  41.981  0.00  0.00    -0.002 A 
ENDBRANCH  26  27
ENDBRANCH  25  26
ENDBRANCH  24  25
ENDBRANCH  23  24
ENDBRANCH   3  23
TORSDOF 8
