REMARK  Name = Undecylenic_acid
REMARK  9 active torsions:
REMARK  status: ('A' for Active; 'I' for Inactive)
REMARK    1  A    between atoms: C_2  and  C_3
REMARK    2  A    between atoms: C_3  and  C_4
REMARK    3  A    between atoms: C_4  and  C_5
REMARK    4  A    between atoms: C_5  and  C_6
REMARK    5  A    between atoms: C_6  and  C_7
REMARK    6  A    between atoms: C_7  and  C_8
REMARK    7  A    between atoms: C_8  and  C_9
REMARK    8  A    between atoms: C_9  and  C_10
REMARK    9  A    between atoms: C_10  and  C_11
REMARK                            x       y       z     vdW  Elec       q    Type
REMARK                         _______ _______ _______ _____ _____    ______ ____
ROOT
ATOM      1  C   UNL     1      47.944  80.975  42.396  0.00  0.00    +0.000 C 
ENDROOT
BRANCH   1   2
ATOM      2  C   UNL     1      49.390  80.568  42.567  0.00  0.00    +0.000 C 
BRANCH   2   3
ATOM      3  C   UNL     1      50.379  81.643  42.303  0.00  0.00    +0.000 C 
BRANCH   3   4
ATOM      4  C   UNL     1      50.042  82.881  43.060  0.00  0.00    +0.005 C 
BRANCH   4   5
ATOM      5  C   UNL     1      51.064  83.967  42.851  0.00  0.00    +0.026 C 
BRANCH   5   7
ATOM      6  C   UNL     1      52.770  84.572  41.255  0.00  0.00    -0.005 C 
ATOM      7  C   UNL     1      51.743  83.815  41.529  0.00  0.00    -0.026 C 
ENDBRANCH   5   7
ENDBRANCH   4   5
ENDBRANCH   3   4
ENDBRANCH   2   3
ENDBRANCH   1   2
BRANCH   1   8
ATOM      8  C   UNL     1      47.690  81.350  40.966  0.00  0.00    +0.001 C 
BRANCH   8   9
ATOM      9  C   UNL     1      46.258  80.921  40.632  0.00  0.00    +0.012 C 
BRANCH   9  10
ATOM     10  C   UNL     1      45.946  81.356  39.219  0.00  0.00    +0.114 C 
BRANCH  10  11
ATOM     11  C   UNL     1      44.607  80.864  38.802  0.00  0.00    +0.365 C 
ATOM     12  O   UNL     1      43.990  81.438  37.862  0.00  0.00    -0.246 OA
ATOM     13  O   UNL     1      43.998  79.779  39.415  0.00  0.00    -0.246 OA
ENDBRANCH  10  11
ENDBRANCH   9  10
ENDBRANCH   8   9
ENDBRANCH   1   8
TORSDOF 9
