REMARK  Name = Unoprostone_isopropyl_ester
REMARK  17 active torsions:
REMARK  status: ('A' for Active; 'I' for Inactive)
REMARK    1  A    between atoms: C_2  and  C_3
REMARK    2  A    between atoms: C_3  and  C_4
REMARK    3  A    between atoms: C_4  and  C_5
REMARK    4  A    between atoms: C_5  and  C_6
REMARK    5  A    between atoms: C_6  and  C_7
REMARK    6  A    between atoms: C_7  and  C_8
REMARK    7  A    between atoms: C_8  and  C_10
REMARK    8  A    between atoms: C_10  and  C_11
REMARK    9  A    between atoms: C_11  and  C_12
REMARK   10  A    between atoms: C_16  and  C_17
REMARK   11  A    between atoms: C_17  and  C_18
REMARK   12  A    between atoms: C_19  and  C_20
REMARK   13  A    between atoms: C_20  and  C_21
REMARK   14  A    between atoms: C_21  and  C_22
REMARK   15  A    between atoms: C_22  and  C_23
REMARK   16  A    between atoms: C_23  and  O_25
REMARK   17  A    between atoms: O_25  and  C_26
REMARK                            x       y       z     vdW  Elec       q    Type
REMARK                         _______ _______ _______ _____ _____    ______ ____
ROOT
ATOM      1  C   UNL     1      43.768  78.438  39.092  0.00  0.00    +0.034 C 
ATOM      2  C   UNL     1      42.944  77.731  38.072  0.00  0.00    +0.155 C 
ATOM      3  C   UNL     1      41.552  77.626  38.656  0.00  0.00    +0.066 C 
ATOM      4  C   UNL     1      41.609  78.430  39.947  0.00  0.00    +0.155 C 
ATOM      5  C   UNL     1      43.021  78.163  40.400  0.00  0.00    +0.037 C 
ATOM      6  O   UNL     1      40.701  77.911  40.825  0.00  0.00    -0.223 OA
ATOM      7  O   UNL     1      43.472  76.460  37.737  0.00  0.00    -0.223 OA
ENDROOT
BRANCH   1   8
ATOM      8  C   UNL     1      43.966  79.903  38.868  0.00  0.00    +0.010 C 
BRANCH   8   9
ATOM      9  C   UNL     1      45.164  80.382  39.617  0.00  0.00    +0.065 C 
BRANCH   9  10
ATOM     10  C   UNL     1      45.574  81.755  39.241  0.00  0.00    +0.151 C 
ATOM     11  O   UNL     1      45.510  82.094  38.082  0.00  0.00    -0.296 OA
BRANCH  10  12
ATOM     12  C   UNL     1      46.053  82.694  40.263  0.00  0.00    +0.065 C 
BRANCH  12  13
ATOM     13  C   UNL     1      47.390  82.303  40.816  0.00  0.00    +0.008 C 
BRANCH  13  14
ATOM     14  C   UNL     1      47.823  83.246  41.912  0.00  0.00    +0.000 C 
BRANCH  14  15
ATOM     15  C   UNL     1      49.084  82.840  42.598  0.00  0.00    +0.000 C 
BRANCH  15  16
ATOM     16  C   UNL     1      50.236  83.745  42.275  0.00  0.00    +0.000 C 
BRANCH  16  18
ATOM     17  C   UNL     1      52.732  83.550  42.258  0.00  0.00    +0.000 C 
ATOM     18  C   UNL     1      51.462  83.238  43.006  0.00  0.00    +0.000 C 
ENDBRANCH  16  18
ENDBRANCH  15  16
ENDBRANCH  14  15
ENDBRANCH  13  14
ENDBRANCH  12  13
ENDBRANCH  10  12
ENDBRANCH   9  10
ENDBRANCH   8   9
ENDBRANCH   1   8
BRANCH   5  19
ATOM     19  C   UNL     1      43.226  76.731  40.714  0.00  0.00    +0.028 C 
BRANCH  19  20
ATOM     20  C   UNL     1      43.832  76.433  42.048  0.00  0.00    -0.031 C 
ATOM     21  C   UNL     1      44.679  75.451  42.221  0.00  0.00    -0.031 C 
BRANCH  21  22
ATOM     22  C   UNL     1      46.122  75.567  42.344  0.00  0.00    +0.026 C 
BRANCH  22  23
ATOM     23  C   UNL     1      46.805  74.855  43.451  0.00  0.00    +0.016 C 
BRANCH  23  24
ATOM     24  C   UNL     1      47.553  73.612  43.094  0.00  0.00    +0.110 C 
BRANCH  24  25
ATOM     25  C   UNL     1      48.206  73.071  44.309  0.00  0.00    +0.317 C 
ATOM     26  O   UNL     1      48.081  73.695  45.386  0.00  0.00    -0.250 OA
BRANCH  25  27
ATOM     27  O   UNL     1      48.933  71.907  44.255  0.00  0.00    -0.452 OA
BRANCH  27  28
ATOM     28  C   UNL     1      50.092  71.751  43.456  0.00  0.00    +0.169 C 
ATOM     29  C   UNL     1      50.850  73.061  43.322  0.00  0.00    +0.047 C 
ATOM     30  C   UNL     1      49.769  71.218  42.097  0.00  0.00    +0.047 C 
ENDBRANCH  27  28
ENDBRANCH  25  27
ENDBRANCH  24  25
ENDBRANCH  23  24
ENDBRANCH  22  23
ENDBRANCH  21  22
ENDBRANCH  19  20
ENDBRANCH   5  19
TORSDOF 17
