REMARK  Name = Unoprostone
REMARK  15 active torsions:
REMARK  status: ('A' for Active; 'I' for Inactive)
REMARK    1  A    between atoms: C_2  and  C_3
REMARK    2  A    between atoms: C_3  and  C_4
REMARK    3  A    between atoms: C_4  and  C_5
REMARK    4  A    between atoms: C_5  and  C_6
REMARK    5  A    between atoms: C_6  and  C_7
REMARK    6  A    between atoms: C_7  and  C_8
REMARK    7  A    between atoms: C_8  and  C_10
REMARK    8  A    between atoms: C_10  and  C_11
REMARK    9  A    between atoms: C_11  and  C_12
REMARK   10  A    between atoms: C_16  and  C_17
REMARK   11  A    between atoms: C_17  and  C_18
REMARK   12  A    between atoms: C_19  and  C_20
REMARK   13  A    between atoms: C_20  and  C_21
REMARK   14  A    between atoms: C_21  and  C_22
REMARK   15  A    between atoms: C_22  and  C_23
REMARK                            x       y       z     vdW  Elec       q    Type
REMARK                         _______ _______ _______ _____ _____    ______ ____
ROOT
ATOM      1  C   UNL     1      44.218  78.666  40.480  0.00  0.00    +0.034 C 
ATOM      2  C   UNL     1      45.291  77.783  40.953  0.00  0.00    +0.155 C 
ATOM      3  C   UNL     1      44.456  76.469  41.124  0.00  0.00    +0.066 C 
ATOM      4  C   UNL     1      43.391  76.552  40.052  0.00  0.00    +0.155 C 
ATOM      5  C   UNL     1      43.699  77.847  39.299  0.00  0.00    +0.037 C 
ATOM      6  O   UNL     1      42.163  76.725  40.673  0.00  0.00    -0.223 OA
ATOM      7  O   UNL     1      46.262  77.404  40.058  0.00  0.00    -0.223 OA
ENDROOT
BRANCH   1   8
ATOM      8  C   UNL     1      44.313  80.085  40.324  0.00  0.00    +0.010 C 
BRANCH   8   9
ATOM      9  C   UNL     1      45.416  80.918  40.794  0.00  0.00    +0.065 C 
BRANCH   9  10
ATOM     10  C   UNL     1      45.986  81.812  39.785  0.00  0.00    +0.151 C 
ATOM     11  O   UNL     1      45.710  81.766  38.608  0.00  0.00    -0.296 OA
BRANCH  10  12
ATOM     12  C   UNL     1      46.968  82.847  40.213  0.00  0.00    +0.065 C 
BRANCH  12  13
ATOM     13  C   UNL     1      48.365  82.387  39.874  0.00  0.00    +0.008 C 
BRANCH  13  14
ATOM     14  C   UNL     1      49.434  83.147  40.581  0.00  0.00    +0.000 C 
BRANCH  14  15
ATOM     15  C   UNL     1      49.646  82.724  41.998  0.00  0.00    +0.000 C 
BRANCH  15  16
ATOM     16  C   UNL     1      50.959  83.297  42.532  0.00  0.00    +0.000 C 
BRANCH  16  18
ATOM     17  C   UNL     1      50.600  84.761  44.535  0.00  0.00    +0.000 C 
ATOM     18  C   UNL     1      50.669  84.702  43.029  0.00  0.00    +0.000 C 
ENDBRANCH  16  18
ENDBRANCH  15  16
ENDBRANCH  14  15
ENDBRANCH  13  14
ENDBRANCH  12  13
ENDBRANCH  10  12
ENDBRANCH   9  10
ENDBRANCH   8   9
ENDBRANCH   1   8
BRANCH   5  19
ATOM     19  C   UNL     1      42.508  78.437  38.641  0.00  0.00    +0.028 C 
BRANCH  19  20
ATOM     20  C   UNL     1      41.816  77.496  37.724  0.00  0.00    -0.031 C 
ATOM     21  C   UNL     1      40.651  76.998  38.090  0.00  0.00    -0.031 C 
BRANCH  21  22
ATOM     22  C   UNL     1      39.414  77.287  37.343  0.00  0.00    +0.026 C 
BRANCH  22  23
ATOM     23  C   UNL     1      39.219  76.260  36.262  0.00  0.00    +0.016 C 
BRANCH  23  24
ATOM     24  C   UNL     1      38.435  75.075  36.733  0.00  0.00    +0.114 C 
BRANCH  24  25
ATOM     25  C   UNL     1      38.269  74.058  35.693  0.00  0.00    +0.365 C 
ATOM     26  O   UNL     1      37.781  72.950  35.937  0.00  0.00    -0.246 OA
ATOM     27  O   UNL     1      38.663  74.317  34.378  0.00  0.00    -0.246 OA
ENDBRANCH  24  25
ENDBRANCH  23  24
ENDBRANCH  22  23
ENDBRANCH  21  22
ENDBRANCH  19  20
ENDBRANCH   5  19
TORSDOF 15
