REMARK  Name = Upadacitinib
REMARK  4 active torsions:
REMARK  status: ('A' for Active; 'I' for Inactive)
REMARK    1  A    between atoms: C_2  and  C_3
REMARK    2  A    between atoms: C_7  and  C_8
REMARK    3  A    between atoms: N_22  and  C_23
REMARK    4  A    between atoms: C_23  and  C_24
REMARK                            x       y       z     vdW  Elec       q    Type
REMARK                         _______ _______ _______ _____ _____    ______ ____
ROOT
ATOM      1  C   UNL     1      47.784  82.769  42.365  0.00  0.00    +0.027 C 
ATOM      2  C   UNL     1      49.188  82.775  41.771  0.00  0.00    +0.095 C 
ATOM      3  N   UNL     1      49.497  81.370  41.945  0.00  0.00    -0.262 N 
ATOM      4  C   UNL     1      48.298  80.632  41.638  0.00  0.00    +0.101 C 
ATOM      5  C   UNL     1      47.131  81.628  41.763  0.00  0.00    +0.062 C 
ATOM      6  C   UNL     1      50.762  80.868  42.347  0.00  0.00    +0.323 C 
ATOM      7  O   UNL     1      51.526  81.600  43.042  0.00  0.00    -0.251 OA
ATOM      8  N   UNL     1      51.228  79.578  42.012  0.00  0.00    -0.179 NA
ENDROOT
BRANCH   5   9
ATOM      9  C   UNL     1      46.484  81.682  40.478  0.00  0.00    +0.063 A 
ATOM     10  C   UNL     1      46.655  82.632  39.490  0.00  0.00    +0.114 A 
ATOM     11  N   UNL     1      45.860  82.305  38.462  0.00  0.00    -0.224 NA
ATOM     12  C   UNL     1      45.187  81.160  38.783  0.00  0.00    +0.167 A 
ATOM     13  N   UNL     1      45.577  80.778  40.031  0.00  0.00    -0.290 N 
ATOM     14  C   UNL     1      45.003  79.654  40.484  0.00  0.00    +0.102 A 
ATOM     15  C   UNL     1      44.071  78.912  39.760  0.00  0.00    +0.179 A 
ATOM     16  N   UNL     1      43.680  77.833  40.463  0.00  0.00    -0.224 NA
ATOM     17  C   UNL     1      44.331  77.841  41.636  0.00  0.00    +0.102 A 
ATOM     18  C   UNL     1      45.150  78.965  41.654  0.00  0.00    +0.041 A 
ATOM     19  N   UNL     1      43.720  79.337  38.533  0.00  0.00    -0.221 NA
ATOM     20  C   UNL     1      44.269  80.450  38.043  0.00  0.00    +0.138 A 
ENDBRANCH   5   9
BRANCH   1  22
ATOM     21  C   UNL     1      48.044  84.918  43.461  0.00  0.00    +0.000 C 
ATOM     22  C   UNL     1      47.151  84.073  42.528  0.00  0.00    +0.002 C 
ENDBRANCH   1  22
BRANCH   8  23
ATOM     23  C   UNL     1      52.346  78.967  42.723  0.00  0.00    +0.220 C 
BRANCH  23  24
ATOM     24  C   UNL     1      52.382  77.475  42.479  0.00  0.00    +0.417 C 
ATOM     25  F   UNL     1      52.158  77.219  41.150  0.00  0.00    -0.168 F 
ATOM     26  F   UNL     1      51.377  76.830  43.191  0.00  0.00    -0.168 F 
ATOM     27  F   UNL     1      53.621  76.949  42.826  0.00  0.00    -0.168 F 
ENDBRANCH  23  24
ENDBRANCH   8  23
TORSDOF 4
