REMARK  Name = Uracil_mustard
REMARK  5 active torsions:
REMARK  status: ('A' for Active; 'I' for Inactive)
REMARK    1  A    between atoms: C_2  and  N_9
REMARK    2  A    between atoms: N_9  and  C_10
REMARK    3  A    between atoms: N_9  and  C_13
REMARK    4  A    between atoms: C_10  and  C_11
REMARK    5  A    between atoms: C_13  and  C_14
REMARK                            x       y       z     vdW  Elec       q    Type
REMARK                         _______ _______ _______ _____ _____    ______ ____
ROOT
ATOM      1  C   UNL     1      47.602  83.006  40.026  0.00  0.00    +0.123 A 
ATOM      2  C   UNL     1      47.631  82.048  41.049  0.00  0.00    +0.126 A 
ATOM      3  C   UNL     1      46.770  81.001  40.930  0.00  0.00    +0.298 A 
ATOM      4  O   UNL     1      46.682  80.055  41.782  0.00  0.00    -0.264 OA
ATOM      5  N   UNL     1      45.918  80.894  39.860  0.00  0.00    -0.151 NA
ATOM      6  C   UNL     1      45.930  81.840  38.906  0.00  0.00    +0.372 A 
ATOM      7  O   UNL     1      45.130  81.731  37.912  0.00  0.00    -0.243 OA
ATOM      8  N   UNL     1      46.765  82.884  38.991  0.00  0.00    -0.188 NA
ENDROOT
BRANCH   2   9
ATOM      9  N   UNL     1      48.513  82.147  42.134  0.00  0.00    -0.300 N 
BRANCH   9  10
ATOM     10  C   UNL     1      49.309  81.027  42.619  0.00  0.00    +0.108 C 
BRANCH  10  11
ATOM     11  C   UNL     1      50.636  80.867  41.947  0.00  0.00    +0.116 C 
ATOM     12 CL   UNL     1      51.667  82.207  42.592  0.00  0.00    -0.112 Cl
ENDBRANCH  10  11
ENDBRANCH   9  10
BRANCH   9  13
ATOM     13  C   UNL     1      48.634  83.425  42.796  0.00  0.00    +0.108 C 
BRANCH  13  14
ATOM     14  C   UNL     1      47.392  84.166  43.081  0.00  0.00    +0.116 C 
ATOM     15 CL   UNL     1      47.675  85.752  43.809  0.00  0.00    -0.112 Cl
ENDBRANCH  13  14
ENDBRANCH   9  13
ENDBRANCH   2   9
TORSDOF 5
