REMARK  Name = Urapidil
REMARK  7 active torsions:
REMARK  status: ('A' for Active; 'I' for Inactive)
REMARK    1  A    between atoms: C_3  and  N_11
REMARK    2  A    between atoms: N_11  and  C_12
REMARK    3  A    between atoms: C_12  and  C_13
REMARK    4  A    between atoms: C_13  and  C_14
REMARK    5  A    between atoms: C_14  and  N_15
REMARK    6  A    between atoms: N_18  and  C_21
REMARK    7  A    between atoms: C_26  and  O_27
REMARK                            x       y       z     vdW  Elec       q    Type
REMARK                         _______ _______ _______ _____ _____    ______ ____
ROOT
ATOM      1  C   UNL     1      46.203  81.728  40.325  0.00  0.00    +0.074 C 
ENDROOT
BRANCH   1   2
ATOM      2  N   UNL     1      46.808  80.430  40.270  0.00  0.00    -0.270 NA
ATOM      3  C   UNL     1      47.011  79.952  41.625  0.00  0.00    +0.094 C 
ATOM      4  C   UNL     1      48.267  80.437  42.247  0.00  0.00    +0.108 C 
ATOM      5  N   UNL     1      49.005  81.408  41.472  0.00  0.00    -0.302 N 
ATOM      6  C   UNL     1      49.078  81.314  40.049  0.00  0.00    +0.108 C 
ATOM      7  C   UNL     1      48.005  80.444  39.499  0.00  0.00    +0.094 C 
BRANCH   5   8
ATOM      8  C   UNL     1      49.694  82.492  42.096  0.00  0.00    +0.082 A 
ATOM      9  C   UNL     1      51.062  82.571  42.145  0.00  0.00    +0.018 A 
ATOM     10  C   UNL     1      51.733  83.611  42.749  0.00  0.00    +0.001 A 
ATOM     11  C   UNL     1      51.001  84.622  43.334  0.00  0.00    +0.003 A 
ATOM     12  C   UNL     1      49.614  84.580  43.306  0.00  0.00    +0.038 A 
ATOM     13  C   UNL     1      48.978  83.527  42.695  0.00  0.00    +0.152 A 
BRANCH  13  14
ATOM     14  O   UNL     1      47.601  83.472  42.659  0.00  0.00    -0.470 OA
ATOM     15  C   UNL     1      46.775  84.445  43.253  0.00  0.00    +0.253 C 
ENDBRANCH  13  14
ENDBRANCH   5   8
ENDBRANCH   1   2
BRANCH   1  16
ATOM     16  C   UNL     1      44.915  81.736  39.570  0.00  0.00    +0.041 C 
BRANCH  16  17
ATOM     17  C   UNL     1      44.541  80.421  39.000  0.00  0.00    +0.115 C 
BRANCH  17  18
ATOM     18  N   UNL     1      44.261  79.349  39.886  0.00  0.00    -0.221 NA
BRANCH  18  21
ATOM     19  C   UNL     1      44.062  76.785  40.899  0.00  0.00    +0.136 C 
ATOM     20  N   UNL     1      43.006  77.260  40.019  0.00  0.00    -0.266 N 
ATOM     21  C   UNL     1      43.138  78.507  39.541  0.00  0.00    +0.137 A 
ATOM     22  C   UNL     1      42.148  78.973  38.700  0.00  0.00    +0.095 A 
ATOM     23  C   UNL     1      41.087  78.143  38.398  0.00  0.00    +0.267 A 
ATOM     24  O   UNL     1      40.161  78.540  37.627  0.00  0.00    -0.267 OA
ATOM     25  N   UNL     1      40.977  76.895  38.889  0.00  0.00    -0.247 N 
ATOM     26  C   UNL     1      41.956  76.469  39.706  0.00  0.00    +0.335 A 
ATOM     27  O   UNL     1      41.878  75.305  40.182  0.00  0.00    -0.246 OA
ATOM     28  C   UNL     1      39.829  76.065  38.526  0.00  0.00    +0.138 C 
ENDBRANCH  18  21
ENDBRANCH  17  18
ENDBRANCH  16  17
ENDBRANCH   1  16
TORSDOF 7
