REMARK  Name = Uridine_triacetate
REMARK  8 active torsions:
REMARK  status: ('A' for Active; 'I' for Inactive)
REMARK    1  A    between atoms: C_2  and  O_4
REMARK    2  A    between atoms: O_4  and  C_5
REMARK    3  A    between atoms: C_5  and  C_6
REMARK    4  A    between atoms: C_7  and  O_23
REMARK    5  A    between atoms: C_8  and  O_19
REMARK    6  A    between atoms: C_9  and  N_11
REMARK    7  A    between atoms: O_19  and  C_20
REMARK    8  A    between atoms: O_23  and  C_24
REMARK                            x       y       z     vdW  Elec       q    Type
REMARK                         _______ _______ _______ _____ _____    ______ ____
ROOT
ATOM      1  C   UNL     1      43.287  77.853  38.756  0.00  0.00    +0.204 C 
ATOM      2  C   UNL     1      43.477  77.214  40.115  0.00  0.00    +0.244 C 
ATOM      3  C   UNL     1      44.504  78.151  40.737  0.00  0.00    +0.260 C 
ATOM      4  C   UNL     1      44.167  79.436  40.058  0.00  0.00    +0.253 C 
ATOM      5  O   UNL     1      44.078  78.982  38.718  0.00  0.00    -0.327 OA
ENDROOT
BRANCH   4   6
ATOM      6  N   UNL     1      45.188  80.423  40.097  0.00  0.00    -0.253 N 
ATOM      7  C   UNL     1      46.150  80.393  41.019  0.00  0.00    +0.087 A 
ATOM      8  C   UNL     1      47.147  81.378  41.038  0.00  0.00    +0.081 A 
ATOM      9  C   UNL     1      47.127  82.384  40.092  0.00  0.00    +0.285 A 
ATOM     10  O   UNL     1      48.010  83.299  40.069  0.00  0.00    -0.265 OA
ATOM     11  N   UNL     1      46.142  82.376  39.184  0.00  0.00    -0.153 NA
ATOM     12  C   UNL     1      45.193  81.411  39.191  0.00  0.00    +0.355 A 
ATOM     13  O   UNL     1      44.300  81.472  38.304  0.00  0.00    -0.244 OA
ENDBRANCH   4   6
BRANCH   1  14
ATOM     14  C   UNL     1      41.855  78.286  38.536  0.00  0.00    +0.242 C 
BRANCH  14  15
ATOM     15  O   UNL     1      41.073  77.097  38.491  0.00  0.00    -0.446 OA
BRANCH  15  17
ATOM     16  C   UNL     1      39.610  75.554  37.184  0.00  0.00    +0.121 C 
ATOM     17  C   UNL     1      40.008  76.924  37.634  0.00  0.00    +0.318 C 
ATOM     18  O   UNL     1      39.399  77.963  37.255  0.00  0.00    -0.250 OA
ENDBRANCH  15  17
ENDBRANCH  14  15
ENDBRANCH   1  14
BRANCH   3  19
ATOM     19  O   UNL     1      44.504  78.153  42.110  0.00  0.00    -0.444 OA
BRANCH  19  20
ATOM     20  C   UNL     1      45.096  77.213  42.934  0.00  0.00    +0.318 C 
ATOM     21  O   UNL     1      46.150  76.705  42.525  0.00  0.00    -0.250 OA
ATOM     22  C   UNL     1      44.455  76.864  44.244  0.00  0.00    +0.121 C 
ENDBRANCH  19  20
ENDBRANCH   3  19
BRANCH   2  23
ATOM     23  O   UNL     1      44.012  75.925  39.912  0.00  0.00    -0.446 OA
BRANCH  23  24
ATOM     24  C   UNL     1      43.547  74.777  40.496  0.00  0.00    +0.318 C 
ATOM     25  O   UNL     1      42.477  74.825  41.142  0.00  0.00    -0.250 OA
ATOM     26  C   UNL     1      44.263  73.488  40.392  0.00  0.00    +0.121 C 
ENDBRANCH  23  24
ENDBRANCH   2  23
TORSDOF 8
