REMARK  Name = Uridine
REMARK  2 active torsions:
REMARK  status: ('A' for Active; 'I' for Inactive)
REMARK    1  A    between atoms: N1_3  and  C1*_9
REMARK    2  A    between atoms: C4*_12  and  C5*_14
REMARK                            x       y       z     vdW  Elec       q    Type
REMARK                         _______ _______ _______ _____ _____    ______ ____
ROOT
ATOM      1  C1*   U A   1      45.505  77.537  40.191  0.00  0.00    +0.242 C 
ATOM      2  C2*   U A   1      44.184  76.927  40.558  0.00  0.00    +0.234 C 
ATOM      3  C3*   U A   1      44.450  76.172  41.841  0.00  0.00    +0.216 C 
ATOM      4  C4*   U A   1      45.932  76.276  41.982  0.00  0.00    +0.183 C 
ATOM      5  O4*   U A   1      46.337  77.415  41.303  0.00  0.00    -0.330 OA
ATOM      6  O3*   U A   1      43.737  76.658  42.910  0.00  0.00    -0.218 OA
ATOM      7  O2*   U A   1      43.170  77.866  40.689  0.00  0.00    -0.216 OA
ENDROOT
BRANCH   1  10
ATOM      8  C5    U A   1      46.097  81.199  39.894  0.00  0.00    +0.081 A 
ATOM      9  C6    U A   1      46.194  79.874  40.293  0.00  0.00    +0.087 A 
ATOM     10  N1    U A   1      45.406  78.914  39.777  0.00  0.00    -0.253 N 
ATOM     11  C2    U A   1      44.511  79.314  38.843  0.00  0.00    +0.355 A 
ATOM     12  O2    U A   1      43.777  78.416  38.363  0.00  0.00    -0.244 OA
ATOM     13  N3    U A   1      44.379  80.562  38.428  0.00  0.00    -0.153 NA
ATOM     14  C4    U A   1      45.163  81.522  38.940  0.00  0.00    +0.285 A 
ATOM     15  O4    U A   1      45.049  82.712  38.556  0.00  0.00    -0.265 OA
ENDBRANCH   1  10
BRANCH   4  16
ATOM     16  C5*   U A   1      46.389  76.390  43.416  0.00  0.00    +0.214 C 
ATOM     17  O5*   U A   1      47.325  77.373  43.623  0.00  0.00    -0.218 OA
ENDBRANCH   4  16
TORSDOF 2
