REMARK  Name = Urofollitropin
REMARK  15 active torsions:
REMARK  status: ('A' for Active; 'I' for Inactive)
REMARK    1  A    between atoms: C_2  and  C_3
REMARK    2  A    between atoms: C_3  and  C_5
REMARK    3  A    between atoms: C_9  and  C_65
REMARK    4  A    between atoms: C_13  and  C_61
REMARK    5  A    between atoms: C_17  and  C_39
REMARK    6  A    between atoms: C_26  and  C_30
REMARK    7  A    between atoms: C_30  and  C_31
REMARK    8  A    between atoms: C_45  and  C_46
REMARK    9  A    between atoms: N_48  and  C_49
REMARK   10  A    between atoms: C_49  and  C_50
REMARK   11  A    between atoms: C_49  and  C_54
REMARK   12  A    between atoms: C_50  and  C_51
REMARK   13  A    between atoms: N_56  and  C_57
REMARK   14  A    between atoms: C_57  and  C_58
REMARK   15  A    between atoms: C_61  and  C_62
REMARK                            x       y       z     vdW  Elec       q    Type
REMARK                         _______ _______ _______ _____ _____    ______ ____
ROOT
ATOM      1  C   UNL     1      47.182  79.985  43.354  0.00  0.00    +0.173 C 
ATOM      2  C   UNL     1      47.384  78.779  42.545  0.00  0.00    +0.262 C 
ATOM      3  O   UNL     1      48.622  78.381  42.558  0.00  0.00    -0.271 OA
ATOM      4  N   UNL     1      46.508  78.023  41.798  0.00  0.00    -0.194 NA
ATOM      5  C   UNL     1      45.319  77.265  42.120  0.00  0.00    +0.203 C 
ATOM      6  C   UNL     1      45.617  75.810  42.032  0.00  0.00    +0.264 C 
ATOM      7  O   UNL     1      46.115  75.314  43.087  0.00  0.00    -0.271 OA
ATOM      8  N   UNL     1      45.421  74.939  40.948  0.00  0.00    -0.196 NA
ATOM      9  C   UNL     1      44.225  74.610  40.223  0.00  0.00    +0.182 C 
ATOM     10  C   UNL     1      43.876  75.606  39.163  0.00  0.00    +0.262 C 
ATOM     11  O   UNL     1      44.867  76.314  38.728  0.00  0.00    -0.271 OA
ATOM     12  N   UNL     1      42.636  75.847  38.604  0.00  0.00    -0.195 NA
ATOM     13  C   UNL     1      41.402  76.284  39.212  0.00  0.00    +0.183 C 
ATOM     14  C   UNL     1      41.363  77.825  39.068  0.00  0.00    +0.100 C 
ATOM     15  S   UNL     1      41.470  78.644  40.656  0.00  0.00    -0.080 S 
ATOM     16  S   UNL     1      43.061  80.011  40.682  0.00  0.00    -0.080 S 
ATOM     17  C   UNL     1      43.545  80.439  38.997  0.00  0.00    +0.097 C 
ATOM     18  C   UNL     1      45.041  80.127  38.836  0.00  0.00    +0.181 C 
ATOM     19  C   UNL     1      45.767  81.394  38.579  0.00  0.00    +0.260 C 
ATOM     20  O   UNL     1      45.093  82.323  38.008  0.00  0.00    -0.272 OA
ATOM     21  N   UNL     1      47.103  81.672  38.895  0.00  0.00    -0.196 NA
ATOM     22  C   UNL     1      47.736  81.640  40.194  0.00  0.00    +0.177 C 
ATOM     23  C   UNL     1      46.809  81.589  41.336  0.00  0.00    +0.262 C 
ATOM     24  O   UNL     1      45.629  82.005  40.981  0.00  0.00    -0.271 OA
ATOM     25  N   UNL     1      46.932  81.212  42.646  0.00  0.00    -0.196 NA
ATOM     26  N   UNL     1      45.139  79.234  37.692  0.00  0.00    -0.122 NA
ENDROOT
BRANCH  13  27
ATOM     27  C   UNL     1      40.191  75.741  38.467  0.00  0.00    +0.247 C 
ATOM     28  O   UNL     1      39.812  74.620  38.915  0.00  0.00    -0.273 OA
ATOM     29  N   UNL     1      39.601  76.425  37.417  0.00  0.00    -0.272 N 
ATOM     30  C   UNL     1      39.910  77.837  37.073  0.00  0.00    +0.094 C 
ATOM     31  C   UNL     1      38.510  78.379  36.827  0.00  0.00    +0.024 C 
ATOM     32  C   UNL     1      37.583  77.153  36.722  0.00  0.00    +0.031 C 
ATOM     33  C   UNL     1      38.652  76.088  36.428  0.00  0.00    +0.154 C 
BRANCH  33  34
ATOM     34  C   UNL     1      38.140  74.745  36.301  0.00  0.00    +0.260 C 
ATOM     35  O   UNL     1      37.870  74.145  37.401  0.00  0.00    -0.272 OA
ATOM     36  N   UNL     1      37.885  73.993  35.143  0.00  0.00    -0.196 NA
BRANCH  36  37
ATOM     37  C   UNL     1      37.032  72.775  35.123  0.00  0.00    +0.173 C 
BRANCH  37  38
ATOM     38  C   UNL     1      35.642  73.106  35.246  0.00  0.00    +0.262 C 
ATOM     39  O   UNL     1      35.108  74.114  34.717  0.00  0.00    -0.271 OA
ATOM     40  N   UNL     1      34.690  72.304  35.995  0.00  0.00    -0.194 NA
BRANCH  40  41
ATOM     41  C   UNL     1      33.277  72.586  36.037  0.00  0.00    +0.203 C 
BRANCH  41  42
ATOM     42  C   UNL     1      32.944  73.282  37.289  0.00  0.00    +0.283 C 
ATOM     43  O   UNL     1      33.798  73.923  37.943  0.00  0.00    -0.270 OA
ATOM     44  N   UNL     1      31.625  73.278  37.847  0.00  0.00    -0.086 NA
ENDBRANCH  41  42
ENDBRANCH  40  41
ENDBRANCH  37  38
BRANCH  37  45
ATOM     45  C   UNL     1      37.597  71.883  34.106  0.00  0.00    +0.031 C 
BRANCH  45  46
ATOM     46  C   UNL     1      38.986  71.414  34.302  0.00  0.00    +0.002 C 
ATOM     47  C   UNL     1      39.366  70.497  33.080  0.00  0.00    +0.000 C 
ATOM     48  C   UNL     1      39.163  70.443  35.477  0.00  0.00    +0.000 C 
ENDBRANCH  45  46
ENDBRANCH  37  45
ENDBRANCH  36  37
ENDBRANCH  33  34
ENDBRANCH  13  27
BRANCH   5  49
ATOM     49  C   UNL     1      44.794  77.491  43.521  0.00  0.00    +0.181 C 
ATOM     50  C   UNL     1      45.474  76.499  44.484  0.00  0.00    +0.038 C 
ATOM     51  O   UNL     1      45.176  78.732  43.988  0.00  0.00    -0.221 OA
ENDBRANCH   5  49
BRANCH   1  52
ATOM     52  C   UNL     1      48.152  80.183  44.487  0.00  0.00    +0.029 C 
ATOM     53  C   UNL     1      49.522  79.569  44.197  0.00  0.00    +0.002 C 
BRANCH  52  55
ATOM     54  C   UNL     1      47.769  82.502  43.941  0.00  0.00    +0.000 C 
ATOM     55  C   UNL     1      48.370  81.541  44.997  0.00  0.00    +0.002 C 
ENDBRANCH  52  55
ENDBRANCH   1  52
BRANCH  22  56
ATOM     56  C   UNL     1      48.941  80.750  40.272  0.00  0.00    +0.057 C 
BRANCH  56  57
ATOM     57  C   UNL     1      49.993  81.550  40.975  0.00  0.00    -0.020 A 
ATOM     58  C   UNL     1      49.780  82.196  42.168  0.00  0.00    -0.001 A 
ATOM     59  C   UNL     1      50.795  82.914  42.802  0.00  0.00    +0.042 A 
ATOM     60  C   UNL     1      52.046  82.986  42.229  0.00  0.00    +0.196 A 
ATOM     61  C   UNL     1      52.288  82.345  41.030  0.00  0.00    +0.042 A 
ATOM     62  C   UNL     1      51.269  81.643  40.424  0.00  0.00    -0.001 A 
ATOM     63  O   UNL     1      53.092  83.705  42.847  0.00  0.00    -0.287 OA
ENDBRANCH  56  57
ENDBRANCH  22  56
BRANCH   9  64
ATOM     64  C   UNL     1      43.057  74.150  41.023  0.00  0.00    +0.120 C 
BRANCH  64  65
ATOM     65  C   UNL     1      42.924  74.969  42.273  0.00  0.00    +0.263 C 
ATOM     66  O   UNL     1      42.835  76.214  42.151  0.00  0.00    -0.272 OA
ATOM     67  N   UNL     1      42.899  74.381  43.551  0.00  0.00    -0.088 NA
ENDBRANCH  64  65
ENDBRANCH   9  64
TORSDOF 15
