REMARK  Name = Ursodeoxycholic_acid
REMARK  4 active torsions:
REMARK  status: ('A' for Active; 'I' for Inactive)
REMARK    1  A    between atoms: C_2  and  C_3
REMARK    2  A    between atoms: C_2  and  C_8
REMARK    3  A    between atoms: C_3  and  C_4
REMARK    4  A    between atoms: C_4  and  C_5
REMARK                            x       y       z     vdW  Elec       q    Type
REMARK                         _______ _______ _______ _____ _____    ______ ____
ROOT
ATOM      1  C   UNL     1      43.170  78.077  40.361  0.00  0.00    +0.000 C 
ATOM      2  C   UNL     1      42.804  78.485  38.952  0.00  0.00    +0.000 C 
ATOM      3  C   UNL     1      43.394  79.916  38.833  0.00  0.00    +0.000 C 
ATOM      4  C   UNL     1      44.303  79.995  39.974  0.00  0.00    +0.002 C 
ATOM      5  C   UNL     1      44.589  78.515  40.335  0.00  0.00    +0.000 C 
ATOM      6  C   UNL     1      45.327  78.653  41.613  0.00  0.00    +0.000 C 
ATOM      7  C   UNL     1      46.699  79.228  41.341  0.00  0.00    +0.000 C 
ATOM      8  C   UNL     1      46.791  80.232  40.258  0.00  0.00    +0.002 C 
ATOM      9  C   UNL     1      45.444  80.880  39.948  0.00  0.00    +0.030 C 
ATOM     10  C   UNL     1      45.683  81.647  38.655  0.00  0.00    +0.152 C 
ATOM     11  C   UNL     1      46.540  82.816  38.968  0.00  0.00    +0.033 C 
ATOM     12  C   UNL     1      47.602  82.623  39.985  0.00  0.00    +0.005 C 
ATOM     13  C   UNL     1      47.891  81.239  40.423  0.00  0.00    +0.000 C 
ATOM     14  C   UNL     1      48.343  81.320  41.891  0.00  0.00    +0.003 C 
ATOM     15  C   UNL     1      49.430  82.404  41.906  0.00  0.00    +0.033 C 
ATOM     16  C   UNL     1      48.737  83.726  41.935  0.00  0.00    +0.152 C 
ATOM     17  C   UNL     1      47.441  83.597  41.167  0.00  0.00    +0.033 C 
ATOM     18  O   UNL     1      48.496  84.053  43.276  0.00  0.00    -0.223 OA
ATOM     19  C   UNL     1      49.160  80.721  39.710  0.00  0.00    +0.000 C 
ATOM     20  O   UNL     1      46.147  80.853  37.631  0.00  0.00    -0.223 OA
ATOM     21  C   UNL     1      45.328  77.790  39.266  0.00  0.00    +0.000 C 
ENDROOT
BRANCH   1  23
ATOM     22  C   UNL     1      43.440  76.402  42.191  0.00  0.00    +0.000 C 
ATOM     23  C   UNL     1      42.685  76.860  40.920  0.00  0.00    +0.001 C 
BRANCH  23  24
ATOM     24  C   UNL     1      42.417  75.612  40.174  0.00  0.00    +0.012 C 
BRANCH  24  25
ATOM     25  C   UNL     1      41.146  74.872  40.383  0.00  0.00    +0.114 C 
BRANCH  25  26
ATOM     26  C   UNL     1      40.188  74.977  39.239  0.00  0.00    +0.365 C 
ATOM     27  O   UNL     1      38.978  74.706  39.365  0.00  0.00    -0.246 OA
ATOM     28  O   UNL     1      40.603  75.382  37.979  0.00  0.00    -0.246 OA
ENDBRANCH  25  26
ENDBRANCH  24  25
ENDBRANCH  23  24
ENDBRANCH   1  23
TORSDOF 4
