REMARK  Name = Valaciclovir
REMARK  8 active torsions:
REMARK  status: ('A' for Active; 'I' for Inactive)
REMARK    1  A    between atoms: C_2  and  C_4
REMARK    2  A    between atoms: C_4  and  C_5
REMARK    3  A    between atoms: C_5  and  O_7
REMARK    4  A    between atoms: O_7  and  C_8
REMARK    5  A    between atoms: C_8  and  C_9
REMARK    6  A    between atoms: C_9  and  O_10
REMARK    7  A    between atoms: O_10  and  C_11
REMARK    8  A    between atoms: C_11  and  N_12
REMARK                            x       y       z     vdW  Elec       q    Type
REMARK                         _______ _______ _______ _____ _____    ______ ____
ROOT
ATOM      1  C   UNL     1      48.057  81.507  41.909  0.00  0.00    +0.258 C 
ENDROOT
BRANCH   1   2
ATOM      2  N   UNL     1      47.219  81.755  40.766  0.00  0.00    -0.268 N 
ATOM      3  C   UNL     1      47.228  82.761  39.900  0.00  0.00    +0.182 A 
ATOM      4  N   UNL     1      46.270  82.600  38.982  0.00  0.00    -0.217 NA
ATOM      5  C   UNL     1      45.632  81.453  39.275  0.00  0.00    +0.175 A 
ATOM      6  C   UNL     1      46.220  80.917  40.392  0.00  0.00    +0.172 A 
ATOM      7  N   UNL     1      45.755  79.758  40.889  0.00  0.00    -0.192 NA
ATOM      8  C   UNL     1      44.730  79.073  40.353  0.00  0.00    +0.261 A 
ATOM      9  N   UNL     1      44.155  79.617  39.244  0.00  0.00    -0.171 NA
ATOM     10  C   UNL     1      44.583  80.770  38.712  0.00  0.00    +0.302 A 
ATOM     11  O   UNL     1      44.046  81.267  37.685  0.00  0.00    -0.263 OA
ATOM     12  N   UNL     1      44.263  77.856  40.898  0.00  0.00    -0.086 NA
ENDBRANCH   1   2
BRANCH   1  13
ATOM     13  O   UNL     1      48.479  82.731  42.422  0.00  0.00    -0.328 OA
BRANCH  13  14
ATOM     14  C   UNL     1      48.694  82.667  43.798  0.00  0.00    +0.192 C 
BRANCH  14  15
ATOM     15  C   UNL     1      49.706  83.739  44.130  0.00  0.00    +0.240 C 
BRANCH  15  16
ATOM     16  O   UNL     1      50.926  83.564  43.456  0.00  0.00    -0.445 OA
BRANCH  16  17
ATOM     17  C   UNL     1      51.102  83.816  42.118  0.00  0.00    +0.335 C 
ATOM     18  O   UNL     1      50.139  84.220  41.434  0.00  0.00    -0.248 OA
BRANCH  17  19
ATOM     19  C   UNL     1      52.446  83.610  41.471  0.00  0.00    +0.190 C 
ATOM     20  N   UNL     1      53.359  83.076  42.436  0.00  0.00    -0.121 NA
BRANCH  19  22
ATOM     21  C   UNL     1      54.197  84.834  40.215  0.00  0.00    +0.002 C 
ATOM     22  C   UNL     1      52.949  84.972  41.037  0.00  0.00    +0.029 C 
ATOM     23  C   UNL     1      53.179  85.896  42.193  0.00  0.00    +0.002 C 
ENDBRANCH  19  22
ENDBRANCH  17  19
ENDBRANCH  16  17
ENDBRANCH  15  16
ENDBRANCH  14  15
ENDBRANCH  13  14
ENDBRANCH   1  13
TORSDOF 8
