REMARK  Name = Valacyclovir_Hydrochloride
REMARK  8 active torsions:
REMARK  status: ('A' for Active; 'I' for Inactive)
REMARK    1  A    between atoms: C_2  and  C_4
REMARK    2  A    between atoms: C_4  and  C_5
REMARK    3  A    between atoms: C_5  and  O_7
REMARK    4  A    between atoms: O_7  and  C_8
REMARK    5  A    between atoms: C_8  and  C_9
REMARK    6  A    between atoms: C_9  and  O_10
REMARK    7  A    between atoms: O_10  and  C_11
REMARK    8  A    between atoms: C_11  and  N_12
REMARK                            x       y       z     vdW  Elec       q    Type
REMARK                         _______ _______ _______ _____ _____    ______ ____
ROOT
ATOM      1  C   UNL     1      48.575  81.426  41.376  0.00  0.00    +0.258 C 
ENDROOT
BRANCH   1   2
ATOM      2  N   UNL     1      47.602  81.696  40.340  0.00  0.00    -0.268 N 
ATOM      3  C   UNL     1      47.620  82.667  39.424  0.00  0.00    +0.182 A 
ATOM      4  N   UNL     1      46.526  82.558  38.646  0.00  0.00    -0.217 NA
ATOM      5  C   UNL     1      45.784  81.495  39.065  0.00  0.00    +0.175 A 
ATOM      6  C   UNL     1      46.472  80.958  40.133  0.00  0.00    +0.172 A 
ATOM      7  N   UNL     1      45.953  79.882  40.745  0.00  0.00    -0.192 NA
ATOM      8  C   UNL     1      44.797  79.346  40.325  0.00  0.00    +0.261 A 
ATOM      9  N   UNL     1      44.119  79.875  39.272  0.00  0.00    -0.171 NA
ATOM     10  C   UNL     1      44.587  80.954  38.617  0.00  0.00    +0.302 A 
ATOM     11  O   UNL     1      43.963  81.429  37.659  0.00  0.00    -0.263 OA
ATOM     12  N   UNL     1      44.306  78.206  41.020  0.00  0.00    -0.086 NA
ENDBRANCH   1   2
BRANCH   1  13
ATOM     13  O   UNL     1      48.280  82.080  42.544  0.00  0.00    -0.328 OA
BRANCH  13  14
ATOM     14  C   UNL     1      48.260  83.437  42.335  0.00  0.00    +0.192 C 
BRANCH  14  15
ATOM     15  C   UNL     1      47.937  84.093  43.659  0.00  0.00    +0.240 C 
BRANCH  15  16
ATOM     16  O   UNL     1      48.923  83.747  44.583  0.00  0.00    -0.445 OA
BRANCH  16  17
ATOM     17  C   UNL     1      50.256  84.049  44.448  0.00  0.00    +0.335 C 
ATOM     18  O   UNL     1      50.664  84.673  43.454  0.00  0.00    -0.248 OA
BRANCH  17  19
ATOM     19  C   UNL     1      51.200  83.624  45.496  0.00  0.00    +0.190 C 
ATOM     20  N   UNL     1      52.530  84.056  45.126  0.00  0.00    -0.121 NA
BRANCH  19  22
ATOM     21  C   UNL     1      52.254  81.841  46.771  0.00  0.00    +0.002 C 
ATOM     22  C   UNL     1      51.236  82.118  45.656  0.00  0.00    +0.029 C 
ATOM     23  C   UNL     1      49.860  81.669  46.104  0.00  0.00    +0.002 C 
ENDBRANCH  19  22
ENDBRANCH  17  19
ENDBRANCH  16  17
ENDBRANCH  15  16
ENDBRANCH  14  15
ENDBRANCH  13  14
ENDBRANCH   1  13
TORSDOF 8
REMARK  Name = Valacyclovir_Hydrochloride
REMARK  8 active torsions:
REMARK  status: ('A' for Active; 'I' for Inactive)
REMARK    1  A    between atoms: C_2  and  C_4
REMARK    2  A    between atoms: C_4  and  C_5
REMARK    3  A    between atoms: C_5  and  O_7
REMARK    4  A    between atoms: O_7  and  C_8
REMARK    5  A    between atoms: C_8  and  C_9
REMARK    6  A    between atoms: C_9  and  O_10
REMARK    7  A    between atoms: O_10  and  C_11
REMARK    8  A    between atoms: C_11  and  N_12
REMARK                            x       y       z     vdW  Elec       q    Type
REMARK                         _______ _______ _______ _____ _____    ______ ____
ROOT
ATOM      1 CL   UNL     1      48.004  81.869  42.379  0.00  0.00    +0.000 Cl
ENDROOT
TORSDOF 0
