REMARK  Name = Valbenazine_Tosylate
REMARK  10 active torsions:
REMARK  status: ('A' for Active; 'I' for Inactive)
REMARK    1  A    between atoms: C_5  and  S_8
REMARK    2  A    between atoms: C_16  and  S_19
REMARK    3  A    between atoms: C_24  and  C_26
REMARK    4  A    between atoms: C_26  and  C_27
REMARK    5  A    between atoms: C_34  and  O_51
REMARK    6  A    between atoms: C_35  and  O_49
REMARK    7  A    between atoms: C_40  and  O_41
REMARK    8  A    between atoms: O_41  and  C_42
REMARK    9  A    between atoms: C_42  and  C_44
REMARK   10  A    between atoms: C_44  and  C_45
REMARK                            x       y       z     vdW  Elec       q    Type
REMARK                         _______ _______ _______ _____ _____    ______ ____
ROOT
ATOM      1  C   UNL     1      50.076  80.825  43.181  0.00  0.00    +0.031 C 
ATOM      2  C   UNL     1      48.769  80.673  42.502  0.00  0.00    -0.022 A 
ATOM      3  C   UNL     1      47.685  81.395  42.952  0.00  0.00    -0.003 A 
ATOM      4  C   UNL     1      46.479  81.253  42.324  0.00  0.00    +0.021 A 
ATOM      5  C   UNL     1      46.388  80.385  41.253  0.00  0.00    +0.136 A 
ATOM      6  C   UNL     1      47.490  79.657  40.803  0.00  0.00    +0.021 A 
ATOM      7  C   UNL     1      48.709  79.798  41.435  0.00  0.00    -0.003 A 
ENDROOT
BRANCH   5   8
ATOM      8  S   UNL     1      44.821  80.223  40.463  0.00  0.00    +0.141 S 
ATOM      9  O   UNL     1      43.843  81.138  41.147  0.00  0.00    -0.140 OA
ATOM     10  O   UNL     1      44.412  78.796  40.549  0.00  0.00    -0.140 OA
ATOM     11  O   UNL     1      44.988  80.685  38.844  0.00  0.00    -0.043 OA
ENDBRANCH   5   8
TORSDOF 1
REMARK  Name = Valbenazine_Tosylate
REMARK  10 active torsions:
REMARK  status: ('A' for Active; 'I' for Inactive)
REMARK    1  A    between atoms: C_5  and  S_8
REMARK    2  A    between atoms: C_16  and  S_19
REMARK    3  A    between atoms: C_24  and  C_26
REMARK    4  A    between atoms: C_26  and  C_27
REMARK    5  A    between atoms: C_34  and  O_51
REMARK    6  A    between atoms: C_35  and  O_49
REMARK    7  A    between atoms: C_40  and  O_41
REMARK    8  A    between atoms: O_41  and  C_42
REMARK    9  A    between atoms: C_42  and  C_44
REMARK   10  A    between atoms: C_44  and  C_45
REMARK                            x       y       z     vdW  Elec       q    Type
REMARK                         _______ _______ _______ _____ _____    ______ ____
ROOT
ATOM      1  C   UNL     1      50.195  80.739  43.201  0.00  0.00    +0.031 C 
ATOM      2  C   UNL     1      48.881  80.623  42.512  0.00  0.00    -0.022 A 
ATOM      3  C   UNL     1      48.507  79.413  41.978  0.00  0.00    -0.003 A 
ATOM      4  C   UNL     1      47.295  79.257  41.328  0.00  0.00    +0.021 A 
ATOM      5  C   UNL     1      46.443  80.341  41.215  0.00  0.00    +0.136 A 
ATOM      6  C   UNL     1      46.809  81.563  41.748  0.00  0.00    +0.021 A 
ATOM      7  C   UNL     1      48.013  81.688  42.385  0.00  0.00    -0.003 A 
ENDROOT
BRANCH   5   8
ATOM      8  S   UNL     1      44.908  80.143  40.392  0.00  0.00    +0.141 S 
ATOM      9  O   UNL     1      44.846  81.095  39.246  0.00  0.00    -0.140 OA
ATOM     10  O   UNL     1      43.747  80.417  41.314  0.00  0.00    -0.140 OA
ATOM     11  O   UNL     1      44.745  78.541  39.858  0.00  0.00    -0.043 OA
ENDBRANCH   5   8
TORSDOF 1
REMARK  Name = Valbenazine_Tosylate
REMARK  10 active torsions:
REMARK  status: ('A' for Active; 'I' for Inactive)
REMARK    1  A    between atoms: C_5  and  S_8
REMARK    2  A    between atoms: C_16  and  S_19
REMARK    3  A    between atoms: C_24  and  C_26
REMARK    4  A    between atoms: C_26  and  C_27
REMARK    5  A    between atoms: C_34  and  O_51
REMARK    6  A    between atoms: C_35  and  O_49
REMARK    7  A    between atoms: C_40  and  O_41
REMARK    8  A    between atoms: O_41  and  C_42
REMARK    9  A    between atoms: C_42  and  C_44
REMARK   10  A    between atoms: C_44  and  C_45
REMARK                            x       y       z     vdW  Elec       q    Type
REMARK                         _______ _______ _______ _____ _____    ______ ____
ROOT
ATOM      1  C   UNL     1      48.705  82.488  41.900  0.00  0.00    +0.056 C 
ATOM      2  C   UNL     1      47.509  83.081  41.224  0.00  0.00    +0.076 C 
ATOM      3  N   UNL     1      46.937  82.064  40.389  0.00  0.00    -0.270 NA
ATOM      4  C   UNL     1      46.035  82.568  39.389  0.00  0.00    +0.077 C 
ATOM      5  C   UNL     1      45.954  81.498  38.321  0.00  0.00    +0.043 C 
ATOM      6  C   UNL     1      45.303  80.326  39.009  0.00  0.00    -0.020 A 
ATOM      7  C   UNL     1      44.506  79.486  38.266  0.00  0.00    +0.036 A 
ATOM      8  C   UNL     1      43.873  78.383  38.853  0.00  0.00    +0.172 A 
ATOM      9  C   UNL     1      44.066  78.156  40.201  0.00  0.00    +0.172 A 
ATOM     10  C   UNL     1      44.873  79.020  40.921  0.00  0.00    +0.037 A 
ATOM     11  C   UNL     1      45.500  80.106  40.353  0.00  0.00    -0.008 A 
ATOM     12  C   UNL     1      46.349  80.991  41.160  0.00  0.00    +0.084 C 
ATOM     13  C   UNL     1      47.510  80.263  41.805  0.00  0.00    +0.064 C 
ATOM     14  C   UNL     1      48.192  81.271  42.685  0.00  0.00    +0.172 C 
ENDROOT
BRANCH   9  15
ATOM     15  O   UNL     1      43.435  77.061  40.779  0.00  0.00    -0.468 OA
ATOM     16  C   UNL     1      43.844  76.488  41.994  0.00  0.00    +0.253 C 
ENDBRANCH   9  15
BRANCH   8  17
ATOM     17  O   UNL     1      43.067  77.529  38.112  0.00  0.00    -0.468 OA
ATOM     18  C   UNL     1      42.391  78.010  36.967  0.00  0.00    +0.253 C 
ENDBRANCH   8  17
BRANCH   1  19
ATOM     19  C   UNL     1      49.756  82.130  40.938  0.00  0.00    +0.005 C 
BRANCH  19  21
ATOM     20  C   UNL     1      52.022  83.242  40.565  0.00  0.00    +0.000 C 
ATOM     21  C   UNL     1      50.580  83.148  40.292  0.00  0.00    +0.000 C 
ATOM     22  C   UNL     1      49.953  84.518  40.642  0.00  0.00    +0.000 C 
ENDBRANCH  19  21
ENDBRANCH   1  19
BRANCH  14  23
ATOM     23  O   UNL     1      49.155  80.740  43.527  0.00  0.00    -0.451 OA
BRANCH  23  24
ATOM     24  C   UNL     1      49.847  81.516  44.434  0.00  0.00    +0.334 C 
ATOM     25  O   UNL     1      49.203  82.450  44.975  0.00  0.00    -0.249 OA
BRANCH  24  26
ATOM     26  C   UNL     1      51.277  81.242  44.740  0.00  0.00    +0.190 C 
ATOM     27  N   UNL     1      51.497  79.824  44.778  0.00  0.00    -0.121 NA
BRANCH  26  28
ATOM     28  C   UNL     1      51.643  81.807  46.089  0.00  0.00    +0.029 C 
ATOM     29  C   UNL     1      53.138  81.764  46.327  0.00  0.00    +0.002 C 
ATOM     30  C   UNL     1      50.880  81.158  47.220  0.00  0.00    +0.002 C 
ENDBRANCH  26  28
ENDBRANCH  24  26
ENDBRANCH  23  24
ENDBRANCH  14  23
TORSDOF 8
