REMARK  Name = Valdecoxib
REMARK  3 active torsions:
REMARK  status: ('A' for Active; 'I' for Inactive)
REMARK    1  A    between atoms: C_3  and  C_13
REMARK    2  A    between atoms: C_4  and  C_7
REMARK    3  A    between atoms: C_16  and  S_19
REMARK                            x       y       z     vdW  Elec       q    Type
REMARK                         _______ _______ _______ _____ _____    ______ ____
ROOT
ATOM      1  C   UNL     1      46.831  83.285  38.540  0.00  0.00    +0.075 C 
ATOM      2  C   UNL     1      46.055  82.040  38.704  0.00  0.00    +0.155 A 
ATOM      3  C   UNL     1      46.383  81.066  39.635  0.00  0.00    +0.054 A 
ATOM      4  C   UNL     1      45.425  80.084  39.468  0.00  0.00    +0.123 A 
ATOM      5  N   UNL     1      44.582  80.489  38.473  0.00  0.00    -0.077 NA
ATOM      6  O   UNL     1      44.986  81.644  38.049  0.00  0.00    -0.358 OA
ENDROOT
BRANCH   4   7
ATOM      7  C   UNL     1      45.333  78.846  40.214  0.00  0.00    +0.021 A 
ATOM      8  C   UNL     1      46.423  78.051  40.454  0.00  0.00    +0.002 A 
ATOM      9  C   UNL     1      46.247  76.888  41.173  0.00  0.00    +0.000 A 
ATOM     10  C   UNL     1      45.009  76.511  41.651  0.00  0.00    +0.000 A 
ATOM     11  C   UNL     1      43.902  77.297  41.420  0.00  0.00    +0.000 A 
ATOM     12  C   UNL     1      44.109  78.460  40.695  0.00  0.00    +0.002 A 
ENDBRANCH   4   7
BRANCH   3  13
ATOM     13  C   UNL     1      47.466  81.065  40.567  0.00  0.00    +0.004 A 
ATOM     14  C   UNL     1      47.278  81.061  41.940  0.00  0.00    +0.002 A 
ATOM     15  C   UNL     1      48.312  81.059  42.833  0.00  0.00    +0.020 A 
ATOM     16  C   UNL     1      49.619  81.062  42.392  0.00  0.00    +0.125 A 
ATOM     17  C   UNL     1      49.840  81.066  41.041  0.00  0.00    +0.020 A 
ATOM     18  C   UNL     1      48.785  81.067  40.141  0.00  0.00    +0.002 A 
BRANCH  16  19
ATOM     19  S   UNL     1      50.936  81.059  43.559  0.00  0.00    +0.093 S 
ATOM     20  O   UNL     1      51.986  80.050  43.147  0.00  0.00    -0.150 OA
ATOM     21  O   UNL     1      50.442  80.731  44.925  0.00  0.00    -0.150 OA
ATOM     22  N   UNL     1      51.700  82.604  43.566  0.00  0.00    +0.039 NA
ENDBRANCH  16  19
ENDBRANCH   3  13
TORSDOF 3
