REMARK  Name = Valganciclovir
REMARK  9 active torsions:
REMARK  status: ('A' for Active; 'I' for Inactive)
REMARK    1  A    between atoms: C_2  and  C_4
REMARK    2  A    between atoms: C_4  and  C_5
REMARK    3  A    between atoms: C_5  and  O_7
REMARK    4  A    between atoms: O_7  and  C_8
REMARK    5  A    between atoms: C_8  and  C_9
REMARK    6  A    between atoms: C_9  and  C_10
REMARK    7  A    between atoms: C_9  and  O_12
REMARK    8  A    between atoms: O_12  and  C_13
REMARK    9  A    between atoms: C_13  and  N_14
REMARK                            x       y       z     vdW  Elec       q    Type
REMARK                         _______ _______ _______ _____ _____    ______ ____
ROOT
ATOM      1  O   UNL     1      47.572  80.374  42.385  0.00  0.00    -0.328 OA
ENDROOT
BRANCH   1   2
ATOM      2  C   UNL     1      48.561  79.573  42.855  0.00  0.00    +0.194 C 
BRANCH   2   3
ATOM      3  C   UNL     1      47.997  78.418  43.602  0.00  0.00    +0.215 C 
ATOM      4  O   UNL     1      47.254  78.758  44.710  0.00  0.00    -0.218 OA
ENDBRANCH   2   3
BRANCH   2   5
ATOM      5  C   UNL     1      49.591  80.417  43.532  0.00  0.00    +0.241 C 
BRANCH   5   6
ATOM      6  O   UNL     1      50.163  81.460  42.881  0.00  0.00    -0.445 OA
BRANCH   6   7
ATOM      7  C   UNL     1      51.091  82.333  43.302  0.00  0.00    +0.335 C 
ATOM      8  O   UNL     1      51.737  82.151  44.359  0.00  0.00    -0.248 OA
BRANCH   7   9
ATOM      9  C   UNL     1      51.422  83.597  42.534  0.00  0.00    +0.190 C 
ATOM     10  N   UNL     1      52.812  83.852  42.683  0.00  0.00    -0.121 NA
BRANCH   9  12
ATOM     11  C   UNL     1      50.879  84.866  44.571  0.00  0.00    +0.002 C 
ATOM     12  C   UNL     1      50.625  84.761  43.092  0.00  0.00    +0.029 C 
ATOM     13  C   UNL     1      49.149  84.600  42.780  0.00  0.00    +0.002 C 
ENDBRANCH   9  12
ENDBRANCH   7   9
ENDBRANCH   6   7
ENDBRANCH   5   6
ENDBRANCH   2   5
ENDBRANCH   1   2
BRANCH   1  14
ATOM     14  C   UNL     1      47.882  81.470  41.649  0.00  0.00    +0.258 C 
BRANCH  14  15
ATOM     15  N   UNL     1      47.062  81.614  40.490  0.00  0.00    -0.268 N 
ATOM     16  C   UNL     1      47.142  82.648  39.621  0.00  0.00    +0.182 A 
ATOM     17  N   UNL     1      46.221  82.491  38.670  0.00  0.00    -0.217 NA
ATOM     18  C   UNL     1      45.536  81.374  38.894  0.00  0.00    +0.175 A 
ATOM     19  C   UNL     1      46.073  80.814  40.057  0.00  0.00    +0.172 A 
ATOM     20  N   UNL     1      45.514  79.660  40.440  0.00  0.00    -0.192 NA
ATOM     21  C   UNL     1      44.526  79.033  39.825  0.00  0.00    +0.261 A 
ATOM     22  N   UNL     1      44.007  79.567  38.710  0.00  0.00    -0.171 NA
ATOM     23  C   UNL     1      44.501  80.722  38.245  0.00  0.00    +0.302 A 
ATOM     24  O   UNL     1      44.034  81.243  37.205  0.00  0.00    -0.263 OA
ATOM     25  N   UNL     1      44.007  77.813  40.316  0.00  0.00    -0.086 NA
ENDBRANCH  14  15
ENDBRANCH   1  14
TORSDOF 9
