REMARK  Name = Valrubicin
REMARK  12 active torsions:
REMARK  status: ('A' for Active; 'I' for Inactive)
REMARK    1  A    between atoms: C_2  and  C_3
REMARK    2  A    between atoms: C_3  and  C_4
REMARK    3  A    between atoms: C_4  and  C_5
REMARK    4  A    between atoms: C_5  and  O_7
REMARK    5  A    between atoms: O_7  and  C_8
REMARK    6  A    between atoms: C_8  and  C_9
REMARK    7  A    between atoms: C_9  and  C_11
REMARK    8  A    between atoms: C_13  and  O_35
REMARK    9  A    between atoms: C_31  and  O_32
REMARK   10  A    between atoms: O_35  and  C_36
REMARK   11  A    between atoms: C_38  and  N_44
REMARK   12  A    between atoms: C_45  and  C_47
REMARK                            x       y       z     vdW  Elec       q    Type
REMARK                         _______ _______ _______ _____ _____    ______ ____
ROOT
ATOM      1  C   UNL     1      41.771  78.231  38.804  0.00  0.00    +0.188 C 
ATOM      2  C   UNL     1      42.086  77.621  40.147  0.00  0.00    +0.072 C 
ATOM      3  C   UNL     1      43.519  77.132  40.224  0.00  0.00    +0.146 C 
ATOM      4  C   UNL     1      44.362  78.328  39.969  0.00  0.00    +0.043 A 
ATOM      5  C   UNL     1      44.103  78.980  38.770  0.00  0.00    +0.021 A 
ATOM      6  C   UNL     1      43.034  78.379  37.945  0.00  0.00    +0.067 C 
ATOM      7  C   UNL     1      44.804  80.100  38.408  0.00  0.00    +0.195 A 
ATOM      8  C   UNL     1      45.780  80.576  39.257  0.00  0.00    +0.084 A 
ATOM      9  C   UNL     1      46.026  79.925  40.434  0.00  0.00    +0.084 A 
ATOM     10  C   UNL     1      45.324  78.793  40.810  0.00  0.00    +0.197 A 
ATOM     11  O   UNL     1      45.575  78.136  42.002  0.00  0.00    -0.287 OA
ATOM     12  C   UNL     1      47.057  80.400  41.369  0.00  0.00    +0.202 C 
ATOM     13  O   UNL     1      47.260  79.782  42.442  0.00  0.00    -0.286 OA
ATOM     14  C   UNL     1      47.833  81.587  41.036  0.00  0.00    +0.076 A 
ATOM     15  C   UNL     1      47.570  82.225  39.850  0.00  0.00    +0.045 A 
ATOM     16  C   UNL     1      46.548  81.769  38.904  0.00  0.00    +0.199 C 
ATOM     17  O   UNL     1      46.313  82.354  37.825  0.00  0.00    -0.286 OA
ATOM     18  C   UNL     1      48.315  83.354  39.547  0.00  0.00    +0.003 A 
ATOM     19  C   UNL     1      49.280  83.812  40.407  0.00  0.00    +0.003 A 
ATOM     20  C   UNL     1      49.521  83.138  41.608  0.00  0.00    +0.037 A 
ATOM     21  C   UNL     1      48.798  82.028  41.919  0.00  0.00    +0.142 A 
ATOM     22  O   UNL     1      44.527  80.728  37.213  0.00  0.00    -0.287 OA
ATOM     23  O   UNL     1      41.213  79.491  39.032  0.00  0.00    -0.218 OA
ENDROOT
BRANCH   1  24
ATOM     24  C   UNL     1      40.833  77.304  38.124  0.00  0.00    +0.222 C 
ATOM     25  O   UNL     1      40.843  76.141  38.508  0.00  0.00    -0.290 OA
BRANCH  24  26
ATOM     26  C   UNL     1      39.952  77.788  37.050  0.00  0.00    +0.275 C 
BRANCH  26  27
ATOM     27  O   UNL     1      39.099  76.742  36.644  0.00  0.00    -0.440 OA
BRANCH  27  28
ATOM     28  C   UNL     1      38.093  76.890  35.711  0.00  0.00    +0.317 C 
ATOM     29  O   UNL     1      37.229  77.791  35.964  0.00  0.00    -0.250 OA
BRANCH  28  30
ATOM     30  C   UNL     1      37.993  76.068  34.480  0.00  0.00    +0.110 C 
BRANCH  30  31
ATOM     31  C   UNL     1      38.336  74.627  34.734  0.00  0.00    +0.012 C 
BRANCH  31  33
ATOM     32  C   UNL     1      38.447  72.359  33.710  0.00  0.00    +0.000 C 
ATOM     33  C   UNL     1      38.209  73.825  33.456  0.00  0.00    +0.001 C 
ENDBRANCH  31  33
ENDBRANCH  30  31
ENDBRANCH  28  30
ENDBRANCH  27  28
ENDBRANCH  26  27
ENDBRANCH  24  26
ENDBRANCH   1  24
BRANCH  21  34
ATOM     34  O   UNL     1      49.015  81.337  43.105  0.00  0.00    -0.471 OA
ATOM     35  C   UNL     1      50.087  81.689  43.959  0.00  0.00    +0.252 C 
ENDBRANCH  21  34
BRANCH   3  36
ATOM     36  O   UNL     1      43.770  76.572  41.466  0.00  0.00    -0.328 OA
BRANCH  36  37
ATOM     37  C   UNL     1      43.744  75.185  41.434  0.00  0.00    +0.237 C 
ATOM     38  C   UNL     1      42.691  74.723  42.429  0.00  0.00    +0.086 C 
ATOM     39  C   UNL     1      43.018  73.304  42.871  0.00  0.00    +0.133 C 
ATOM     40  C   UNL     1      43.842  72.617  41.799  0.00  0.00    +0.199 C 
ATOM     41  C   UNL     1      45.140  73.325  41.637  0.00  0.00    +0.150 C 
ATOM     42  O   UNL     1      44.985  74.684  41.753  0.00  0.00    -0.330 OA
ATOM     43  C   UNL     1      45.766  73.044  40.273  0.00  0.00    +0.035 C 
ATOM     44  O   UNL     1      44.088  71.291  42.120  0.00  0.00    -0.219 OA
BRANCH  39  45
ATOM     45  N   UNL     1      41.849  72.565  43.257  0.00  0.00    -0.197 NA
ATOM     46  C   UNL     1      41.885  71.600  44.294  0.00  0.00    +0.337 C 
ATOM     47  O   UNL     1      42.777  71.588  45.181  0.00  0.00    -0.264 OA
BRANCH  46  48
ATOM     48  C   UNL     1      40.827  70.539  44.355  0.00  0.00    +0.471 C 
ATOM     49  F   UNL     1      40.824  69.838  43.158  0.00  0.00    -0.162 F 
ATOM     50  F   UNL     1      39.588  71.083  44.540  0.00  0.00    -0.162 F 
ATOM     51  F   UNL     1      41.136  69.635  45.358  0.00  0.00    -0.162 F 
ENDBRANCH  46  48
ENDBRANCH  39  45
ENDBRANCH  36  37
ENDBRANCH   3  36
TORSDOF 12
