REMARK  Name = Valsartan
REMARK  10 active torsions:
REMARK  status: ('A' for Active; 'I' for Inactive)
REMARK    1  A    between atoms: C_2  and  C_3
REMARK    2  A    between atoms: C_3  and  C_4
REMARK    3  A    between atoms: C_4  and  C_5
REMARK    4  A    between atoms: N_7  and  C_8
REMARK    5  A    between atoms: N_7  and  C_26
REMARK    6  A    between atoms: C_8  and  C_9
REMARK    7  A    between atoms: C_12  and  C_15
REMARK    8  A    between atoms: C_20  and  C_21
REMARK    9  A    between atoms: C_26  and  C_27
REMARK   10  A    between atoms: C_26  and  C_30
REMARK                            x       y       z     vdW  Elec       q    Type
REMARK                         _______ _______ _______ _____ _____    ______ ____
ROOT
ATOM      1  C   UNL     1      46.850  80.189  40.532  0.00  0.00    -0.002 A 
ATOM      2  C   UNL     1      47.485  81.278  39.988  0.00  0.00    -0.003 A 
ATOM      3  C   UNL     1      48.004  82.313  40.775  0.00  0.00    -0.000 A 
ATOM      4  C   UNL     1      47.911  82.302  42.149  0.00  0.00    +0.000 A 
ATOM      5  C   UNL     1      47.276  81.214  42.706  0.00  0.00    -0.000 A 
ATOM      6  C   UNL     1      46.764  80.196  41.940  0.00  0.00    -0.003 A 
ENDROOT
BRANCH   4   7
ATOM      7  C   UNL     1      48.463  83.382  42.967  0.00  0.00    +0.003 A 
ATOM      8  C   UNL     1      47.615  84.375  43.466  0.00  0.00    +0.000 A 
ATOM      9  C   UNL     1      48.115  85.400  44.224  0.00  0.00    +0.000 A 
ATOM     10  C   UNL     1      49.463  85.473  44.509  0.00  0.00    +0.000 A 
ATOM     11  C   UNL     1      50.273  84.481  44.005  0.00  0.00    +0.003 A 
ATOM     12  C   UNL     1      49.794  83.440  43.240  0.00  0.00    +0.039 A 
BRANCH  12  13
ATOM     13  C   UNL     1      50.688  82.418  42.736  0.00  0.00    +0.208 A 
ATOM     14  N   UNL     1      51.904  82.702  42.179  0.00  0.00    -0.106 NA
ATOM     15  N   UNL     1      52.497  81.578  41.816  0.00  0.00    -0.021 NA
ATOM     16  N   UNL     1      51.689  80.578  42.128  0.00  0.00    -0.021 NA
ATOM     17  N   UNL     1      50.606  81.103  42.680  0.00  0.00    -0.106 NA
ENDBRANCH  12  13
ENDBRANCH   4   7
BRANCH   1  18
ATOM     18  C   UNL     1      46.313  79.044  39.767  0.00  0.00    +0.121 C 
BRANCH  18  21
ATOM     19  C   UNL     1      44.295  77.944  40.635  0.00  0.00    +0.226 C 
ATOM     20  O   UNL     1      43.017  77.870  40.576  0.00  0.00    -0.275 OA
ATOM     21  N   UNL     1      44.908  78.864  39.734  0.00  0.00    -0.267 N 
BRANCH  19  22
ATOM     22  C   UNL     1      44.964  77.093  41.605  0.00  0.00    +0.085 C 
BRANCH  22  23
ATOM     23  C   UNL     1      43.967  76.098  42.224  0.00  0.00    +0.010 C 
BRANCH  23  25
ATOM     24  C   UNL     1      43.675  74.353  43.890  0.00  0.00    +0.000 C 
ATOM     25  C   UNL     1      44.730  75.270  43.258  0.00  0.00    +0.001 C 
ENDBRANCH  23  25
ENDBRANCH  22  23
ENDBRANCH  19  22
BRANCH  21  26
ATOM     26  C   UNL     1      44.091  79.666  38.822  0.00  0.00    +0.179 C 
BRANCH  26  27
ATOM     27  C   UNL     1      44.791  80.750  38.125  0.00  0.00    +0.029 C 
ATOM     28  C   UNL     1      45.327  81.749  39.130  0.00  0.00    +0.002 C 
ATOM     29  C   UNL     1      45.981  80.268  37.306  0.00  0.00    +0.002 C 
ENDBRANCH  26  27
BRANCH  26  30
ATOM     30  C   UNL     1      43.455  78.746  37.799  0.00  0.00    +0.382 C 
ATOM     31  O   UNL     1      42.584  79.239  37.015  0.00  0.00    -0.244 OA
ATOM     32  O   UNL     1      43.785  77.410  37.692  0.00  0.00    -0.244 OA
ENDBRANCH  26  30
ENDBRANCH  21  26
ENDBRANCH  18  21
ENDBRANCH   1  18
TORSDOF 10
