REMARK  Name = Vamorolone
REMARK  2 active torsions:
REMARK  status: ('A' for Active; 'I' for Inactive)
REMARK    1  A    between atoms: C_19  and  C_20
REMARK    2  A    between atoms: C_20  and  C_22
REMARK                            x       y       z     vdW  Elec       q    Type
REMARK                         _______ _______ _______ _____ _____    ______ ____
ROOT
ATOM      1  C   UNL     1      49.486  85.110  42.572  0.00  0.00    +0.003 C 
ATOM      2  C   UNL     1      49.386  83.780  41.914  0.00  0.00    +0.035 C 
ATOM      3  C   UNL     1      48.151  83.631  41.041  0.00  0.00    +0.003 C 
ATOM      4  C   UNL     1      48.306  82.155  40.685  0.00  0.00    +0.007 C 
ATOM      5  C   UNL     1      47.186  81.586  39.958  0.00  0.00    +0.019 C 
ATOM      6  C   UNL     1      45.982  82.458  39.756  0.00  0.00    +0.008 C 
ATOM      7  C   UNL     1      44.884  81.790  38.946  0.00  0.00    +0.023 C 
ATOM      8  C   UNL     1      44.652  80.392  39.370  0.00  0.00    -0.034 C 
ATOM      9  C   UNL     1      43.416  79.976  39.542  0.00  0.00    +0.034 C 
ATOM     10  C   UNL     1      43.147  78.584  39.971  0.00  0.00    +0.195 C 
ATOM     11  O   UNL     1      41.979  78.151  40.145  0.00  0.00    -0.287 OA
ATOM     12  C   UNL     1      44.285  77.705  40.194  0.00  0.00    +0.038 C 
ATOM     13  C   UNL     1      45.509  78.171  40.005  0.00  0.00    -0.016 C 
ATOM     14  C   UNL     1      45.832  79.522  39.579  0.00  0.00    +0.049 C 
ATOM     15  C   UNL     1      46.721  80.293  40.492  0.00  0.00    -0.042 C 
ATOM     16  C   UNL     1      47.049  79.858  41.684  0.00  0.00    -0.034 C 
ATOM     17  C   UNL     1      47.915  80.593  42.641  0.00  0.00    +0.028 C 
ATOM     18  C   UNL     1      48.833  81.490  41.902  0.00  0.00    +0.037 C 
ATOM     19  C   UNL     1      49.220  82.630  42.853  0.00  0.00    +0.180 C 
ATOM     20  O   UNL     1      48.161  82.799  43.738  0.00  0.00    -0.218 OA
ATOM     21  C   UNL     1      50.091  80.655  41.592  0.00  0.00    +0.003 C 
ATOM     22  C   UNL     1      46.624  79.395  38.272  0.00  0.00    +0.013 C 
ENDROOT
BRANCH  19  23
ATOM     23  C   UNL     1      50.422  82.317  43.627  0.00  0.00    +0.211 C 
ATOM     24  O   UNL     1      50.522  82.565  44.816  0.00  0.00    -0.291 OA
BRANCH  23  25
ATOM     25  C   UNL     1      51.583  81.672  42.965  0.00  0.00    +0.248 C 
ATOM     26  O   UNL     1      52.541  82.594  42.572  0.00  0.00    -0.212 OA
ENDBRANCH  23  25
ENDBRANCH  19  23
TORSDOF 2
