REMARK  Name = Vandetanib
REMARK  5 active torsions:
REMARK  status: ('A' for Active; 'I' for Inactive)
REMARK    1  A    between atoms: C_5  and  C_8
REMARK    2  A    between atoms: C_8  and  O_9
REMARK    3  A    between atoms: O_9  and  C_10
REMARK    4  A    between atoms: C_11  and  O_29
REMARK    5  A    between atoms: N_20  and  C_21
REMARK                            x       y       z     vdW  Elec       q    Type
REMARK                         _______ _______ _______ _____ _____    ______ ____
ROOT
ATOM      1  C   UNL     1      43.727  78.892  39.550  0.00  0.00    +0.174 A 
ATOM      2  C   UNL     1      44.358  78.590  40.729  0.00  0.00    +0.173 A 
ATOM      3  C   UNL     1      45.390  79.442  41.117  0.00  0.00    +0.044 A 
ATOM      4  C   UNL     1      45.765  80.530  40.365  0.00  0.00    +0.054 A 
ATOM      5  C   UNL     1      45.091  80.788  39.178  0.00  0.00    +0.089 A 
ATOM      6  C   UNL     1      44.060  79.960  38.767  0.00  0.00    +0.059 A 
ATOM      7  N   UNL     1      45.441  81.850  38.424  0.00  0.00    -0.224 NA
ATOM      8  C   UNL     1      46.434  82.656  38.813  0.00  0.00    +0.200 A 
ATOM      9  N   UNL     1      47.091  82.425  39.945  0.00  0.00    -0.207 NA
ATOM     10  C   UNL     1      46.788  81.387  40.736  0.00  0.00    +0.155 A 
ATOM     11  N   UNL     1      47.506  81.153  41.951  0.00  0.00    -0.192 NA
ENDROOT
BRANCH  11  12
ATOM     12  C   UNL     1      48.438  82.168  42.369  0.00  0.00    +0.100 A 
ATOM     13  C   UNL     1      47.912  83.300  42.955  0.00  0.00    +0.156 A 
ATOM     14  C   UNL     1      48.812  84.279  43.357  0.00  0.00    +0.038 A 
ATOM     15  C   UNL     1      50.170  84.134  43.183  0.00  0.00    +0.037 A 
ATOM     16  C   UNL     1      50.645  82.996  42.599  0.00  0.00    +0.008 A 
ATOM     17  C   UNL     1      49.784  82.018  42.193  0.00  0.00    +0.019 A 
ATOM     18 BR   UNL     1      51.340  85.542  43.772  0.00  0.00    -0.049 Br
ATOM     19  F   UNL     1      46.588  83.465  43.135  0.00  0.00    -0.203 F 
ENDBRANCH  11  12
BRANCH   2  20
ATOM     20  O   UNL     1      44.039  77.516  41.539  0.00  0.00    -0.468 OA
ATOM     21  C   UNL     1      44.831  77.142  42.634  0.00  0.00    +0.253 C 
ENDBRANCH   2  20
BRANCH   1  22
ATOM     22  O   UNL     1      42.697  78.050  39.154  0.00  0.00    -0.472 OA
BRANCH  22  23
ATOM     23  C   UNL     1      41.777  78.476  38.201  0.00  0.00    +0.206 C 
BRANCH  23  28
ATOM     24  C   UNL     1      38.045  74.457  37.111  0.00  0.00    +0.090 C 
ATOM     25  N   UNL     1      38.851  75.550  37.565  0.00  0.00    -0.272 NA
ATOM     26  C   UNL     1      39.045  76.499  36.486  0.00  0.00    +0.072 C 
ATOM     27  C   UNL     1      39.811  77.702  36.989  0.00  0.00    +0.021 C 
ATOM     28  C   UNL     1      41.148  77.284  37.558  0.00  0.00    +0.047 C 
ATOM     29  C   UNL     1      41.025  76.155  38.526  0.00  0.00    +0.021 C 
ATOM     30  C   UNL     1      40.115  75.049  38.065  0.00  0.00    +0.072 C 
ENDBRANCH  23  28
ENDBRANCH  22  23
ENDBRANCH   1  22
TORSDOF 5
