REMARK  Name = Vapreotide_acetate
REMARK  18 active torsions:
REMARK  status: ('A' for Active; 'I' for Inactive)
REMARK    1  A    between atoms: C_2  and  C_4
REMARK    2  A    between atoms: C_8  and  C_64
REMARK    3  A    between atoms: C_13  and  N_52
REMARK    4  A    between atoms: C_17  and  C_44
REMARK    5  A    between atoms: C_21  and  C_34
REMARK    6  A    between atoms: C_25  and  C_29
REMARK    7  A    between atoms: C_29  and  C_30
REMARK    8  A    between atoms: C_30  and  C_31
REMARK    9  A    between atoms: C_31  and  C_32
REMARK   10  A    between atoms: C_34  and  C_35
REMARK   11  A    between atoms: C_44  and  C_45
REMARK   12  A    between atoms: C_53  and  C_55
REMARK   13  A    between atoms: C_55  and  C_56
REMARK   14  A    between atoms: C_56  and  C_57
REMARK   15  A    between atoms: N_66  and  C_67
REMARK   16  A    between atoms: C_67  and  C_68
REMARK   17  A    between atoms: C_67  and  C_78
REMARK   18  A    between atoms: C_68  and  C_69
REMARK                            x       y       z     vdW  Elec       q    Type
REMARK                         _______ _______ _______ _____ _____    ______ ____
ROOT
ATOM      1  C   UNL     1      44.641  75.140  42.592  0.00  0.00    +0.173 C 
ATOM      2  C   UNL     1      44.016  76.428  42.984  0.00  0.00    +0.262 C 
ATOM      3  O   UNL     1      44.005  76.766  44.219  0.00  0.00    -0.271 OA
ATOM      4  N   UNL     1      43.415  77.340  42.105  0.00  0.00    -0.195 NA
ATOM      5  C   UNL     1      44.039  77.875  40.883  0.00  0.00    +0.184 C 
ATOM      6  C   UNL     1      42.944  78.022  39.818  0.00  0.00    +0.100 C 
ATOM      7  S   UNL     1      43.511  79.134  38.520  0.00  0.00    -0.080 S 
ATOM      8  S   UNL     1      42.598  78.575  36.681  0.00  0.00    -0.080 S 
ATOM      9  C   UNL     1      40.826  78.421  36.946  0.00  0.00    +0.100 C 
ATOM     10  C   UNL     1      40.278  77.145  36.312  0.00  0.00    +0.184 C 
ATOM     11  C   UNL     1      41.027  75.958  36.748  0.00  0.00    +0.263 C 
ATOM     12  O   UNL     1      42.303  76.215  36.799  0.00  0.00    -0.271 OA
ATOM     13  N   UNL     1      40.666  74.679  37.095  0.00  0.00    -0.196 NA
ATOM     14  C   UNL     1      39.886  74.137  38.188  0.00  0.00    +0.177 C 
ATOM     15  C   UNL     1      39.905  74.907  39.430  0.00  0.00    +0.262 C 
ATOM     16  O   UNL     1      39.818  76.175  39.340  0.00  0.00    -0.271 OA
ATOM     17  N   UNL     1      40.013  74.415  40.754  0.00  0.00    -0.196 NA
ATOM     18  C   UNL     1      39.417  73.210  41.270  0.00  0.00    +0.177 C 
ATOM     19  C   UNL     1      40.293  72.016  41.166  0.00  0.00    +0.262 C 
ATOM     20  O   UNL     1      39.915  71.025  40.439  0.00  0.00    -0.271 OA
ATOM     21  N   UNL     1      41.541  71.853  41.808  0.00  0.00    -0.196 NA
ATOM     22  C   UNL     1      42.673  72.741  41.752  0.00  0.00    +0.173 C 
ATOM     23  C   UNL     1      43.011  73.247  43.106  0.00  0.00    +0.262 C 
ATOM     24  O   UNL     1      42.269  72.868  44.077  0.00  0.00    -0.271 OA
ATOM     25  N   UNL     1      44.062  74.095  43.426  0.00  0.00    -0.196 NA
ENDROOT
BRANCH   1  27
ATOM     26  C   UNL     1      46.587  75.194  44.209  0.00  0.00    +0.002 C 
ATOM     27  C   UNL     1      46.116  75.076  42.779  0.00  0.00    +0.029 C 
ATOM     28  C   UNL     1      46.743  73.939  42.057  0.00  0.00    +0.002 C 
ENDBRANCH   1  27
BRANCH  10  29
ATOM     29  N   UNL     1      38.882  77.149  36.376  0.00  0.00    -0.196 NA
ATOM     30  C   UNL     1      38.075  77.291  35.215  0.00  0.00    +0.260 C 
ATOM     31  O   UNL     1      38.682  77.412  34.097  0.00  0.00    -0.272 OA
BRANCH  30  32
ATOM     32  C   UNL     1      36.599  77.308  35.225  0.00  0.00    +0.174 C 
ATOM     33  N   UNL     1      36.021  77.176  36.526  0.00  0.00    -0.123 NA
BRANCH  32  34
ATOM     34  C   UNL     1      36.108  78.625  34.654  0.00  0.00    +0.055 C 
BRANCH  34  35
ATOM     35  C   UNL     1      36.571  79.801  35.427  0.00  0.00    -0.020 A 
ATOM     36  C   UNL     1      37.742  80.443  35.124  0.00  0.00    -0.004 A 
ATOM     37  C   UNL     1      38.120  81.530  35.879  0.00  0.00    -0.000 A 
ATOM     38  C   UNL     1      37.368  82.007  36.933  0.00  0.00    -0.000 A 
ATOM     39  C   UNL     1      36.194  81.340  37.213  0.00  0.00    -0.000 A 
ATOM     40  C   UNL     1      35.804  80.255  36.472  0.00  0.00    -0.004 A 
ENDBRANCH  34  35
ENDBRANCH  32  34
ENDBRANCH  30  32
ENDBRANCH  10  29
BRANCH   5  41
ATOM     41  C   UNL     1      44.688  79.171  41.176  0.00  0.00    +0.263 C 
ATOM     42  O   UNL     1      44.430  79.679  42.326  0.00  0.00    -0.271 OA
ATOM     43  N   UNL     1      45.550  79.891  40.338  0.00  0.00    -0.196 NA
BRANCH  43  44
ATOM     44  C   UNL     1      46.112  81.169  40.781  0.00  0.00    +0.179 C 
BRANCH  44  45
ATOM     45  C   UNL     1      45.946  82.235  39.818  0.00  0.00    +0.281 C 
ATOM     46  O   UNL     1      46.278  82.135  38.598  0.00  0.00    -0.270 OA
ATOM     47  N   UNL     1      45.369  83.487  40.264  0.00  0.00    -0.086 NA
ENDBRANCH  44  45
BRANCH  44  48
ATOM     48  C   UNL     1      47.532  80.951  41.178  0.00  0.00    +0.059 C 
BRANCH  48  49
ATOM     49  C   UNL     1      48.260  82.143  41.634  0.00  0.00    +0.001 A 
ATOM     50  C   UNL     1      48.325  82.542  42.970  0.00  0.00    +0.095 A 
ATOM     51  N   UNL     1      49.024  83.676  43.042  0.00  0.00    -0.244 NA
ATOM     52  C   UNL     1      49.430  84.056  41.823  0.00  0.00    +0.081 A 
ATOM     53  C   UNL     1      50.184  85.121  41.358  0.00  0.00    +0.019 A 
ATOM     54  C   UNL     1      50.474  85.251  40.031  0.00  0.00    +0.002 A 
ATOM     55  C   UNL     1      50.009  84.305  39.144  0.00  0.00    +0.000 A 
ATOM     56  C   UNL     1      49.258  83.251  39.623  0.00  0.00    +0.001 A 
ATOM     57  C   UNL     1      48.954  83.097  40.939  0.00  0.00    +0.015 A 
ENDBRANCH  48  49
ENDBRANCH  44  48
ENDBRANCH  43  44
ENDBRANCH   5  41
BRANCH  18  58
ATOM     58  C   UNL     1      38.931  73.424  42.717  0.00  0.00    +0.059 C 
BRANCH  58  59
ATOM     59  C   UNL     1      38.319  72.206  43.244  0.00  0.00    +0.001 A 
ATOM     60  C   UNL     1      38.831  71.280  44.122  0.00  0.00    +0.095 A 
ATOM     61  N   UNL     1      37.896  70.336  44.300  0.00  0.00    -0.244 NA
ATOM     62  C   UNL     1      36.795  70.601  43.577  0.00  0.00    +0.081 A 
ATOM     63  C   UNL     1      35.595  69.930  43.439  0.00  0.00    +0.019 A 
ATOM     64  C   UNL     1      34.646  70.479  42.600  0.00  0.00    +0.002 A 
ATOM     65  C   UNL     1      34.853  71.648  41.912  0.00  0.00    +0.000 A 
ATOM     66  C   UNL     1      36.058  72.294  42.069  0.00  0.00    +0.001 A 
ATOM     67  C   UNL     1      37.051  71.776  42.909  0.00  0.00    +0.015 A 
ENDBRANCH  58  59
ENDBRANCH  18  58
BRANCH  14  68
ATOM     68  C   UNL     1      38.481  73.799  37.684  0.00  0.00    +0.057 C 
BRANCH  68  69
ATOM     69  C   UNL     1      38.527  72.801  36.595  0.00  0.00    -0.020 A 
ATOM     70  C   UNL     1      38.642  73.190  35.284  0.00  0.00    -0.001 A 
ATOM     71  C   UNL     1      38.679  72.261  34.251  0.00  0.00    +0.042 A 
ATOM     72  C   UNL     1      38.597  70.929  34.572  0.00  0.00    +0.196 A 
ATOM     73  C   UNL     1      38.483  70.504  35.858  0.00  0.00    +0.042 A 
ATOM     74  C   UNL     1      38.448  71.461  36.885  0.00  0.00    -0.001 A 
ATOM     75  O   UNL     1      38.634  70.004  33.545  0.00  0.00    -0.287 OA
ENDBRANCH  68  69
ENDBRANCH  14  68
BRANCH  22  76
ATOM     76  C   UNL     1      43.855  72.012  41.136  0.00  0.00    +0.031 C 
BRANCH  76  77
ATOM     77  C   UNL     1      44.225  70.799  41.978  0.00  0.00    +0.004 C 
BRANCH  77  78
ATOM     78  C   UNL     1      43.187  70.606  43.087  0.00  0.00    +0.021 C 
BRANCH  78  79
ATOM     79  C   UNL     1      42.180  71.734  43.014  0.00  0.00    +0.109 C 
ATOM     80  N   UNL     1      41.864  72.178  44.359  0.00  0.00    -0.131 NA
ENDBRANCH  78  79
ENDBRANCH  77  78
ENDBRANCH  76  77
ENDBRANCH  22  76
TORSDOF 18
REMARK  Name = Vapreotide_acetate
REMARK  18 active torsions:
REMARK  status: ('A' for Active; 'I' for Inactive)
REMARK    1  A    between atoms: C_2  and  C_4
REMARK    2  A    between atoms: C_8  and  C_64
REMARK    3  A    between atoms: C_13  and  N_52
REMARK    4  A    between atoms: C_17  and  C_44
REMARK    5  A    between atoms: C_21  and  C_34
REMARK    6  A    between atoms: C_25  and  C_29
REMARK    7  A    between atoms: C_29  and  C_30
REMARK    8  A    between atoms: C_30  and  C_31
REMARK    9  A    between atoms: C_31  and  C_32
REMARK   10  A    between atoms: C_34  and  C_35
REMARK   11  A    between atoms: C_44  and  C_45
REMARK   12  A    between atoms: C_53  and  C_55
REMARK   13  A    between atoms: C_55  and  C_56
REMARK   14  A    between atoms: C_56  and  C_57
REMARK   15  A    between atoms: N_66  and  C_67
REMARK   16  A    between atoms: C_67  and  C_68
REMARK   17  A    between atoms: C_67  and  C_78
REMARK   18  A    between atoms: C_68  and  C_69
REMARK                            x       y       z     vdW  Elec       q    Type
REMARK                         _______ _______ _______ _____ _____    ______ ____
ROOT
ATOM      1  C   UNL     1      41.234  75.395  39.699  0.00  0.00    +0.126 C 
ATOM      2  C   UNL     1      42.161  76.515  39.918  0.00  0.00    +0.365 C 
ATOM      3  O   UNL     1      41.979  77.598  39.304  0.00  0.00    -0.246 OA
ATOM      4  O   UNL     1      43.257  76.465  40.779  0.00  0.00    -0.246 OA
ENDROOT
TORSDOF 0
