REMARK  Name = Vardenafil
REMARK  8 active torsions:
REMARK  status: ('A' for Active; 'I' for Inactive)
REMARK    1  A    between atoms: C_2  and  C_3
REMARK    2  A    between atoms: C_3  and  C_4
REMARK    3  A    between atoms: C_10  and  C_14
REMARK    4  A    between atoms: C_15  and  O_31
REMARK    5  A    between atoms: C_18  and  S_20
REMARK    6  A    between atoms: S_20  and  N_23
REMARK    7  A    between atoms: N_26  and  C_29
REMARK    8  A    between atoms: O_31  and  C_32
REMARK                            x       y       z     vdW  Elec       q    Type
REMARK                         _______ _______ _______ _____ _____    ______ ____
ROOT
ATOM      1  C   UNL     1      43.507  78.225  39.725  0.00  0.00    +0.073 A 
ATOM      2  C   UNL     1      43.774  77.219  40.594  0.00  0.00    +0.142 A 
ATOM      3  C   UNL     1      42.822  76.199  40.769  0.00  0.00    +0.038 A 
ATOM      4  C   UNL     1      41.638  76.218  40.072  0.00  0.00    +0.023 A 
ATOM      5  C   UNL     1      41.353  77.233  39.187  0.00  0.00    +0.122 A 
ATOM      6  C   UNL     1      42.285  78.234  39.014  0.00  0.00    +0.026 A 
ENDROOT
BRANCH   1  13
ATOM      7  C   UNL     1      47.750  80.392  40.640  0.00  0.00    +0.140 A 
ATOM      8  N   UNL     1      48.297  81.525  40.170  0.00  0.00    -0.233 NA
ATOM      9  C   UNL     1      47.459  82.100  39.294  0.00  0.00    +0.083 A 
ATOM     10  C   UNL     1      46.349  81.255  39.243  0.00  0.00    +0.155 A 
ATOM     11  N   UNL     1      46.522  80.203  40.069  0.00  0.00    -0.209 N 
ATOM     12  N   UNL     1      45.617  79.276  40.193  0.00  0.00    -0.144 NA
ATOM     13  C   UNL     1      44.437  79.318  39.491  0.00  0.00    +0.188 A 
ATOM     14  N   UNL     1      44.262  80.345  38.682  0.00  0.00    -0.186 NA
ATOM     15  C   UNL     1      45.189  81.337  38.525  0.00  0.00    +0.300 A 
ATOM     16  O   UNL     1      44.945  82.280  37.734  0.00  0.00    -0.263 OA
ATOM     17  C   UNL     1      47.648  83.368  38.526  0.00  0.00    +0.054 C 
BRANCH   7  18
ATOM     18  C   UNL     1      48.347  79.456  41.628  0.00  0.00    +0.066 C 
BRANCH  18  20
ATOM     19  C   UNL     1      50.143  77.749  41.782  0.00  0.00    +0.000 C 
ATOM     20  C   UNL     1      49.235  78.484  40.842  0.00  0.00    +0.008 C 
ENDBRANCH  18  20
ENDBRANCH   7  18
ENDBRANCH   1  13
BRANCH   5  21
ATOM     21  S   UNL     1      39.853  77.293  38.276  0.00  0.00    +0.063 S 
ATOM     22  O   UNL     1      39.868  78.599  37.526  0.00  0.00    -0.153 OA
ATOM     23  O   UNL     1      38.661  77.314  39.186  0.00  0.00    -0.153 OA
BRANCH  21  24
ATOM     24  N   UNL     1      39.792  75.969  37.223  0.00  0.00    -0.153 NA
ATOM     25  C   UNL     1      39.876  76.258  35.841  0.00  0.00    +0.113 C 
ATOM     26  C   UNL     1      39.806  75.064  34.944  0.00  0.00    +0.092 C 
ATOM     27  N   UNL     1      38.927  74.023  35.386  0.00  0.00    -0.270 NA
ATOM     28  C   UNL     1      39.188  73.667  36.750  0.00  0.00    +0.092 C 
ATOM     29  C   UNL     1      38.967  74.885  37.620  0.00  0.00    +0.113 C 
BRANCH  27  30
ATOM     30  C   UNL     1      39.165  72.843  34.574  0.00  0.00    +0.072 C 
ATOM     31  C   UNL     1      38.487  72.881  33.243  0.00  0.00    +0.019 C 
ENDBRANCH  27  30
ENDBRANCH  21  24
ENDBRANCH   5  21
BRANCH   2  32
ATOM     32  O   UNL     1      44.901  77.123  41.313  0.00  0.00    -0.475 OA
BRANCH  32  33
ATOM     33  C   UNL     1      45.252  76.235  42.320  0.00  0.00    +0.206 C 
ATOM     34  C   UNL     1      45.028  76.745  43.705  0.00  0.00    +0.051 C 
ENDBRANCH  32  33
ENDBRANCH   2  32
TORSDOF 8
