REMARK  Name = Varenicline
REMARK  0 active torsions:
REMARK  status: ('A' for Active; 'I' for Inactive)
REMARK                            x       y       z     vdW  Elec       q    Type
REMARK                         _______ _______ _______ _____ _____    ______ ____
ROOT
ATOM      1  C   UNL     1      48.338  83.126  42.764  0.00  0.00    +0.012 C 
ATOM      2  C   UNL     1      48.357  83.406  41.254  0.00  0.00    +0.040 C 
ATOM      3  C   UNL     1      49.674  82.982  40.664  0.00  0.00    +0.093 C 
ATOM      4  N   UNL     1      49.815  81.549  40.851  0.00  0.00    -0.217 NA
ATOM      5  C   UNL     1      49.748  81.212  42.258  0.00  0.00    +0.093 C 
ATOM      6  C   UNL     1      48.365  81.613  42.739  0.00  0.00    +0.040 C 
ATOM      7  C   UNL     1      47.341  81.351  41.656  0.00  0.00    -0.023 A 
ATOM      8  C   UNL     1      46.483  80.300  41.432  0.00  0.00    +0.016 A 
ATOM      9  C   UNL     1      45.637  80.303  40.352  0.00  0.00    +0.099 A 
ATOM     10  N   UNL     1      44.785  79.261  40.129  0.00  0.00    -0.241 NA
ATOM     11  C   UNL     1      43.944  79.233  39.080  0.00  0.00    +0.119 A 
ATOM     12  C   UNL     1      43.938  80.287  38.199  0.00  0.00    +0.119 A 
ATOM     13  N   UNL     1      44.773  81.340  38.392  0.00  0.00    -0.241 NA
ATOM     14  C   UNL     1      45.611  81.356  39.446  0.00  0.00    +0.099 A 
ATOM     15  C   UNL     1      46.489  82.394  39.706  0.00  0.00    +0.016 A 
ATOM     16  C   UNL     1      47.337  82.402  40.781  0.00  0.00    -0.023 A 
ENDROOT
TORSDOF 0
