REMARK  Name = Vasopressin
REMARK  19 active torsions:
REMARK  status: ('A' for Active; 'I' for Inactive)
REMARK    1  A    between atoms: C_3  and  C_58
REMARK    2  A    between atoms: C_6  and  C_8
REMARK    3  A    between atoms: C_17  and  C_49
REMARK    4  A    between atoms: C_21  and  C_42
REMARK    5  A    between atoms: C_25  and  C_37
REMARK    6  A    between atoms: C_29  and  C_33
REMARK    7  A    between atoms: C_33  and  C_34
REMARK    8  A    between atoms: C_37  and  C_38
REMARK    9  A    between atoms: C_38  and  C_39
REMARK   10  A    between atoms: C_42  and  C_43
REMARK   11  A    between atoms: C_49  and  C_50
REMARK   12  A    between atoms: N_60  and  C_61
REMARK   13  A    between atoms: C_61  and  C_62
REMARK   14  A    between atoms: C_61  and  C_69
REMARK   15  A    between atoms: C_62  and  C_63
REMARK   16  A    between atoms: C_63  and  C_64
REMARK   17  A    between atoms: C_64  and  N_65
REMARK   18  A    between atoms: N_71  and  C_72
REMARK   19  A    between atoms: C_72  and  C_73
REMARK                            x       y       z     vdW  Elec       q    Type
REMARK                         _______ _______ _______ _____ _____    ______ ____
ROOT
ATOM      1  C   UNL     1      42.179  75.194  41.973  0.00  0.00    +0.183 C 
ATOM      2  C   UNL     1      42.228  76.501  41.195  0.00  0.00    +0.100 C 
ATOM      3  S   UNL     1      42.547  76.196  39.440  0.00  0.00    -0.080 S 
ATOM      4  S   UNL     1      42.183  77.952  38.334  0.00  0.00    -0.080 S 
ATOM      5  C   UNL     1      43.319  79.307  38.858  0.00  0.00    +0.097 C 
ATOM      6  C   UNL     1      44.285  79.486  37.746  0.00  0.00    +0.181 C 
ATOM      7  C   UNL     1      45.301  80.539  37.915  0.00  0.00    +0.260 C 
ATOM      8  O   UNL     1      46.368  80.318  37.217  0.00  0.00    -0.272 OA
ATOM      9  N   UNL     1      45.263  81.692  38.694  0.00  0.00    -0.196 NA
ATOM     10  C   UNL     1      45.086  81.845  40.113  0.00  0.00    +0.177 C 
ATOM     11  C   UNL     1      46.205  82.692  40.656  0.00  0.00    +0.262 C 
ATOM     12  O   UNL     1      46.673  83.542  39.819  0.00  0.00    -0.271 OA
ATOM     13  N   UNL     1      46.749  82.639  41.924  0.00  0.00    -0.196 NA
ATOM     14  C   UNL     1      47.383  81.518  42.618  0.00  0.00    +0.177 C 
ATOM     15  C   UNL     1      48.244  80.712  41.748  0.00  0.00    +0.262 C 
ATOM     16  O   UNL     1      48.573  81.289  40.642  0.00  0.00    -0.271 OA
ATOM     17  N   UNL     1      48.745  79.430  41.954  0.00  0.00    -0.196 NA
ATOM     18  C   UNL     1      47.986  78.251  42.397  0.00  0.00    +0.173 C 
ATOM     19  C   UNL     1      46.941  77.951  41.427  0.00  0.00    +0.262 C 
ATOM     20  O   UNL     1      47.072  78.592  40.306  0.00  0.00    -0.271 OA
ATOM     21  N   UNL     1      45.833  77.106  41.487  0.00  0.00    -0.196 NA
ATOM     22  C   UNL     1      45.517  76.064  42.442  0.00  0.00    +0.182 C 
ATOM     23  C   UNL     1      44.727  74.968  41.798  0.00  0.00    +0.262 C 
ATOM     24  O   UNL     1      45.394  74.354  40.876  0.00  0.00    -0.271 OA
ATOM     25  N   UNL     1      43.439  74.537  42.039  0.00  0.00    -0.195 NA
ATOM     26  N   UNL     1      44.870  78.220  37.314  0.00  0.00    -0.122 NA
ENDROOT
BRANCH   1  32
ATOM     27  C   UNL     1      42.045  71.156  39.910  0.00  0.00    +0.024 C 
ATOM     28  C   UNL     1      40.871  71.494  39.043  0.00  0.00    +0.031 C 
ATOM     29  C   UNL     1      40.465  72.836  39.518  0.00  0.00    +0.154 C 
ATOM     30  N   UNL     1      41.147  73.150  40.760  0.00  0.00    -0.272 N 
ATOM     31  C   UNL     1      41.849  71.981  41.178  0.00  0.00    +0.094 C 
ATOM     32  C   UNL     1      41.067  74.424  41.359  0.00  0.00    +0.247 C 
ATOM     33  O   UNL     1      39.941  75.053  41.414  0.00  0.00    -0.273 OA
BRANCH  29  34
ATOM     34  C   UNL     1      40.806  73.805  38.429  0.00  0.00    +0.260 C 
ATOM     35  O   UNL     1      41.408  74.852  38.752  0.00  0.00    -0.272 OA
ATOM     36  N   UNL     1      40.490  73.616  37.074  0.00  0.00    -0.196 NA
BRANCH  36  37
ATOM     37  C   UNL     1      39.709  74.524  36.261  0.00  0.00    +0.173 C 
BRANCH  37  38
ATOM     38  C   UNL     1      38.728  73.733  35.483  0.00  0.00    +0.262 C 
ATOM     39  O   UNL     1      37.904  74.310  34.726  0.00  0.00    -0.271 OA
ATOM     40  N   UNL     1      38.641  72.315  35.528  0.00  0.00    -0.194 NA
BRANCH  40  41
ATOM     41  C   UNL     1      37.638  71.569  34.795  0.00  0.00    +0.203 C 
BRANCH  41  42
ATOM     42  C   UNL     1      37.751  70.114  34.946  0.00  0.00    +0.283 C 
ATOM     43  O   UNL     1      38.452  69.627  35.861  0.00  0.00    -0.270 OA
ATOM     44  N   UNL     1      37.069  69.235  34.063  0.00  0.00    -0.086 NA
ENDBRANCH  41  42
ENDBRANCH  40  41
ENDBRANCH  37  38
BRANCH  37  45
ATOM     45  C   UNL     1      38.946  75.495  37.150  0.00  0.00    +0.033 C 
BRANCH  45  46
ATOM     46  C   UNL     1      38.282  76.522  36.253  0.00  0.00    +0.029 C 
BRANCH  46  47
ATOM     47  C   UNL     1      37.477  77.505  37.063  0.00  0.00    +0.129 C 
BRANCH  47  48
ATOM     48  N   UNL     1      36.905  78.522  36.202  0.00  0.00    -0.234 NA
ATOM     49  C   UNL     1      36.122  79.450  36.654  0.00  0.00    +0.284 C 
ATOM     50  N   UNL     1      35.714  80.468  35.763  0.00  0.00    -0.104 NA
ATOM     51  N   UNL     1      35.730  79.379  38.013  0.00  0.00    -0.104 NA
ENDBRANCH  47  48
ENDBRANCH  46  47
ENDBRANCH  45  46
ENDBRANCH  37  45
ENDBRANCH  36  37
ENDBRANCH  29  34
ENDBRANCH   1  32
BRANCH  10  52
ATOM     52  C   UNL     1      43.834  82.705  40.330  0.00  0.00    +0.057 C 
BRANCH  52  53
ATOM     53  C   UNL     1      42.613  82.026  39.840  0.00  0.00    -0.020 A 
ATOM     54  C   UNL     1      42.734  80.883  39.088  0.00  0.00    -0.001 A 
ATOM     55  C   UNL     1      41.616  80.231  38.627  0.00  0.00    +0.042 A 
ATOM     56  C   UNL     1      40.331  80.680  38.890  0.00  0.00    +0.196 A 
ATOM     57  C   UNL     1      40.260  81.836  39.652  0.00  0.00    +0.042 A 
ATOM     58  C   UNL     1      41.364  82.506  40.123  0.00  0.00    -0.001 A 
ATOM     59  O   UNL     1      39.203  80.033  38.434  0.00  0.00    -0.287 OA
ENDBRANCH  52  53
ENDBRANCH  10  52
BRANCH  22  60
ATOM     60  C   UNL     1      44.953  76.549  43.720  0.00  0.00    +0.120 C 
BRANCH  60  61
ATOM     61  C   UNL     1      45.847  76.244  44.840  0.00  0.00    +0.263 C 
ATOM     62  O   UNL     1      45.483  76.484  46.010  0.00  0.00    -0.272 OA
ATOM     63  N   UNL     1      47.145  75.670  44.666  0.00  0.00    -0.088 NA
ENDBRANCH  60  61
ENDBRANCH  22  60
BRANCH  14  64
ATOM     64  C   UNL     1      48.237  82.059  43.757  0.00  0.00    +0.057 C 
BRANCH  64  65
ATOM     65  C   UNL     1      48.941  83.309  43.473  0.00  0.00    -0.020 A 
ATOM     66  C   UNL     1      50.273  83.336  43.062  0.00  0.00    -0.004 A 
ATOM     67  C   UNL     1      50.961  84.497  42.822  0.00  0.00    -0.000 A 
ATOM     68  C   UNL     1      50.349  85.724  42.981  0.00  0.00    -0.000 A 
ATOM     69  C   UNL     1      49.024  85.728  43.389  0.00  0.00    -0.000 A 
ATOM     70  C   UNL     1      48.339  84.559  43.628  0.00  0.00    -0.004 A 
ENDBRANCH  64  65
ENDBRANCH  14  64
BRANCH  18  71
ATOM     71  C   UNL     1      48.943  77.200  42.790  0.00  0.00    +0.041 C 
BRANCH  71  72
ATOM     72  C   UNL     1      50.393  77.510  42.688  0.00  0.00    +0.091 C 
BRANCH  72  73
ATOM     73  C   UNL     1      50.812  78.796  42.170  0.00  0.00    +0.261 C 
ATOM     74  O   UNL     1      50.834  79.202  40.992  0.00  0.00    -0.272 OA
ATOM     75  N   UNL     1      51.283  79.782  43.133  0.00  0.00    -0.088 NA
ENDBRANCH  72  73
ENDBRANCH  71  72
ENDBRANCH  18  71
TORSDOF 19
