REMARK  Name = Vecuronium
REMARK  6 active torsions:
REMARK  status: ('A' for Active; 'I' for Inactive)
REMARK    1  A    between atoms: C_2  and  O_4
REMARK    2  A    between atoms: O_4  and  C_5
REMARK    3  A    between atoms: C_14  and  N_15
REMARK    4  A    between atoms: C_27  and  N_33
REMARK    5  A    between atoms: C_28  and  O_29
REMARK    6  A    between atoms: O_29  and  C_30
REMARK                            x       y       z     vdW  Elec       q    Type
REMARK                         _______ _______ _______ _____ _____    ______ ____
ROOT
ATOM      1  C   UNL     1      41.240  75.150  40.298  0.00  0.00    +0.183 C 
ATOM      2  C   UNL     1      41.791  75.850  41.488  0.00  0.00    +0.045 C 
ATOM      3  C   UNL     1      42.989  76.684  41.342  0.00  0.00    +0.004 C 
ATOM      4  C   UNL     1      43.928  76.472  42.492  0.00  0.00    +0.000 C 
ATOM      5  C   UNL     1      45.278  77.056  42.352  0.00  0.00    +0.000 C 
ATOM      6  C   UNL     1      45.512  77.922  41.145  0.00  0.00    +0.000 C 
ATOM      7  C   UNL     1      44.883  77.451  39.901  0.00  0.00    +0.000 C 
ATOM      8  C   UNL     1      43.745  76.475  40.070  0.00  0.00    +0.002 C 
ATOM      9  C   UNL     1      42.700  76.717  38.979  0.00  0.00    +0.020 C 
ATOM     10  C   UNL     1      41.620  75.676  38.970  0.00  0.00    +0.098 C 
ATOM     11  C   UNL     1      44.215  75.038  39.974  0.00  0.00    +0.000 C 
ATOM     12  C   UNL     1      44.554  78.585  38.950  0.00  0.00    +0.000 C 
ATOM     13  C   UNL     1      45.610  79.677  39.161  0.00  0.00    +0.003 C 
ATOM     14  C   UNL     1      45.167  80.343  40.471  0.00  0.00    +0.035 C 
ATOM     15  C   UNL     1      45.217  79.347  41.549  0.00  0.00    +0.001 C 
ATOM     16  C   UNL     1      46.329  79.788  42.506  0.00  0.00    -0.017 C 
ATOM     17  C   UNL     1      46.642  81.226  42.148  0.00  0.00    -0.013 C 
ATOM     18  C   UNL     1      46.103  81.489  40.811  0.00  0.00    +0.150 C 
ATOM     19  C   UNL     1      43.716  80.819  40.335  0.00  0.00    +0.004 C 
ENDROOT
BRANCH  17  20
ATOM     20  N   UNL     1      48.001  81.531  42.432  0.00  0.00    +0.392 N 
ATOM     21  C   UNL     1      48.395  82.883  42.301  0.00  0.00    -0.073 C 
ATOM     22  C   UNL     1      49.928  82.960  42.251  0.00  0.00    -0.022 C 
ATOM     23  C   UNL     1      50.564  82.309  43.430  0.00  0.00    -0.004 C 
ATOM     24  C   UNL     1      49.904  81.079  43.928  0.00  0.00    -0.022 C 
ATOM     25  C   UNL     1      48.387  81.083  43.769  0.00  0.00    -0.073 C 
ATOM     26  C   UNL     1      48.787  80.674  41.526  0.00  0.00    -0.096 C 
ENDBRANCH  17  20
BRANCH  10  27
ATOM     27  N   UNL     1      40.469  76.289  38.279  0.00  0.00    -0.271 NA
ATOM     28  C   UNL     1      40.880  77.408  37.468  0.00  0.00    +0.072 C 
ATOM     29  C   UNL     1      39.602  78.107  37.010  0.00  0.00    +0.017 C 
ATOM     30  C   UNL     1      38.579  77.127  36.535  0.00  0.00    +0.003 C 
ATOM     31  C   UNL     1      39.337  75.864  36.126  0.00  0.00    +0.017 C 
ATOM     32  C   UNL     1      39.910  75.284  37.398  0.00  0.00    +0.072 C 
ENDBRANCH  10  27
BRANCH   1  33
ATOM     33  O   UNL     1      41.517  73.761  40.338  0.00  0.00    -0.451 OA
BRANCH  33  35
ATOM     34  C   UNL     1      39.242  73.133  41.224  0.00  0.00    +0.121 C 
ATOM     35  C   UNL     1      40.557  72.794  40.575  0.00  0.00    +0.317 C 
ATOM     36  O   UNL     1      40.828  71.619  40.226  0.00  0.00    -0.250 OA
ENDBRANCH  33  35
ENDBRANCH   1  33
BRANCH  18  37
ATOM     37  O   UNL     1      46.996  81.635  39.751  0.00  0.00    -0.454 OA
BRANCH  37  38
ATOM     38  C   UNL     1      47.267  82.812  39.106  0.00  0.00    +0.317 C 
ATOM     39  O   UNL     1      46.387  83.694  39.022  0.00  0.00    -0.250 OA
ATOM     40  C   UNL     1      48.593  83.045  38.510  0.00  0.00    +0.121 C 
ENDBRANCH  37  38
ENDBRANCH  18  37
TORSDOF 6
