REMARK  Name = Vemurafenib
REMARK  7 active torsions:
REMARK  status: ('A' for Active; 'I' for Inactive)
REMARK    1  A    between atoms: C_2  and  C_3
REMARK    2  A    between atoms: C_3  and  S_4
REMARK    3  A    between atoms: S_4  and  N_7
REMARK    4  A    between atoms: N_7  and  C_8
REMARK    5  A    between atoms: C_10  and  C_15
REMARK    6  A    between atoms: C_15  and  C_17
REMARK    7  A    between atoms: C_23  and  C_26
REMARK                            x       y       z     vdW  Elec       q    Type
REMARK                         _______ _______ _______ _____ _____    ______ ____
ROOT
ATOM      1  C   UNL     1      47.578  81.559  41.931  0.00  0.00    +0.202 C 
ATOM      2  O   UNL     1      47.201  80.419  42.330  0.00  0.00    -0.286 OA
ENDROOT
BRANCH   1   3
ATOM      3  C   UNL     1      47.150  82.028  40.632  0.00  0.00    +0.061 A 
ATOM      4  C   UNL     1      47.476  83.200  39.943  0.00  0.00    +0.104 A 
ATOM      5  N   UNL     1      46.783  83.173  38.790  0.00  0.00    -0.225 NA
ATOM      6  C   UNL     1      46.046  82.050  38.725  0.00  0.00    +0.162 A 
ATOM      7  C   UNL     1      46.239  81.293  39.858  0.00  0.00    +0.040 A 
ATOM      8  C   UNL     1      45.600  80.084  40.051  0.00  0.00    +0.005 A 
ATOM      9  C   UNL     1      44.728  79.586  39.090  0.00  0.00    +0.019 A 
ATOM     10  C   UNL     1      44.556  80.368  37.966  0.00  0.00    +0.101 A 
ATOM     11  N   UNL     1      45.191  81.541  37.804  0.00  0.00    -0.225 NA
BRANCH   9  12
ATOM     12  C   UNL     1      44.040  78.313  39.266  0.00  0.00    +0.002 A 
ATOM     13  C   UNL     1      42.865  78.075  38.580  0.00  0.00    +0.001 A 
ATOM     14  C   UNL     1      42.177  76.883  38.714  0.00  0.00    +0.011 A 
ATOM     15  C   UNL     1      42.656  75.895  39.544  0.00  0.00    +0.058 A 
ATOM     16  C   UNL     1      43.826  76.105  40.242  0.00  0.00    +0.011 A 
ATOM     17  C   UNL     1      44.498  77.308  40.092  0.00  0.00    +0.001 A 
ATOM     18 CL   UNL     1      41.844  74.365  39.764  0.00  0.00    -0.082 Cl
ENDBRANCH   9  12
ENDBRANCH   1   3
BRANCH   1  21
ATOM     19  C   UNL     1      50.698  82.827  43.581  0.00  0.00    +0.118 A 
ATOM     20  C   UNL     1      49.804  82.094  42.831  0.00  0.00    +0.162 A 
ATOM     21  C   UNL     1      48.431  82.382  42.773  0.00  0.00    +0.095 A 
ATOM     22  C   UNL     1      48.015  83.457  43.518  0.00  0.00    +0.145 A 
ATOM     23  C   UNL     1      48.915  84.209  44.285  0.00  0.00    +0.031 A 
ATOM     24  C   UNL     1      50.258  83.902  44.322  0.00  0.00    +0.023 A 
ATOM     25  F   UNL     1      46.699  83.805  43.488  0.00  0.00    -0.204 F 
ATOM     26  F   UNL     1      50.240  81.039  42.103  0.00  0.00    -0.203 F 
BRANCH  19  27
ATOM     27  N   UNL     1      52.079  82.486  43.607  0.00  0.00    -0.098 NA
BRANCH  27  28
ATOM     28  S   UNL     1      53.272  83.434  42.820  0.00  0.00    +0.073 S 
ATOM     29  O   UNL     1      53.277  83.114  41.342  0.00  0.00    -0.153 OA
ATOM     30  O   UNL     1      54.672  83.137  43.295  0.00  0.00    -0.153 OA
BRANCH  28  31
ATOM     31  C   UNL     1      53.004  85.177  43.024  0.00  0.00    +0.174 C 
BRANCH  31  33
ATOM     32  C   UNL     1      53.312  87.026  44.699  0.00  0.00    +0.002 C 
ATOM     33  C   UNL     1      53.337  85.555  44.440  0.00  0.00    +0.027 C 
ENDBRANCH  31  33
ENDBRANCH  28  31
ENDBRANCH  27  28
ENDBRANCH  19  27
ENDBRANCH   1  21
TORSDOF 7
