REMARK  Name = Venlafaxine
REMARK  5 active torsions:
REMARK  status: ('A' for Active; 'I' for Inactive)
REMARK    1  A    between atoms: N_2  and  C_4
REMARK    2  A    between atoms: C_4  and  C_5
REMARK    3  A    between atoms: C_5  and  C_6
REMARK    4  A    between atoms: C_5  and  C_14
REMARK    5  A    between atoms: C_9  and  O_12
REMARK                            x       y       z     vdW  Elec       q    Type
REMARK                         _______ _______ _______ _____ _____    ______ ____
ROOT
ATOM      1  C   UNL     1      49.107  81.533  41.272  0.00  0.00    +0.066 C 
ENDROOT
BRANCH   1   2
ATOM      2  C   UNL     1      49.542  82.916  41.653  0.00  0.00    +0.132 C 
ATOM      3  C   UNL     1      48.471  83.772  42.202  0.00  0.00    +0.031 C 
ATOM      4  C   UNL     1      48.160  83.498  43.663  0.00  0.00    +0.003 C 
ATOM      5  C   UNL     1      49.319  83.781  44.565  0.00  0.00    +0.000 C 
ATOM      6  C   UNL     1      50.529  83.986  43.717  0.00  0.00    +0.003 C 
ATOM      7  C   UNL     1      50.674  82.941  42.621  0.00  0.00    +0.031 C 
ATOM      8  O   UNL     1      50.005  83.533  40.465  0.00  0.00    -0.225 OA
ENDBRANCH   1   2
BRANCH   1   9
ATOM      9  C   UNL     1      47.843  81.427  40.578  0.00  0.00    -0.019 A 
ATOM     10  C   UNL     1      46.847  80.577  41.041  0.00  0.00    -0.001 A 
ATOM     11  C   UNL     1      45.622  80.433  40.425  0.00  0.00    +0.037 A 
ATOM     12  C   UNL     1      45.343  81.156  39.288  0.00  0.00    +0.139 A 
ATOM     13  C   UNL     1      46.325  82.008  38.813  0.00  0.00    +0.037 A 
ATOM     14  C   UNL     1      47.537  82.144  39.434  0.00  0.00    -0.001 A 
BRANCH  12  15
ATOM     15  O   UNL     1      44.134  81.064  38.614  0.00  0.00    -0.471 OA
ATOM     16  C   UNL     1      43.395  79.876  38.641  0.00  0.00    +0.252 C 
ENDBRANCH  12  15
ENDBRANCH   1   9
BRANCH   1  17
ATOM     17  C   UNL     1      49.071  80.589  42.447  0.00  0.00    +0.079 C 
BRANCH  17  19
ATOM     18  C   UNL     1      51.271  79.698  42.450  0.00  0.00    +0.090 C 
ATOM     19  N   UNL     1      49.874  79.390  42.196  0.00  0.00    -0.270 NA
ATOM     20  C   UNL     1      49.806  78.981  40.812  0.00  0.00    +0.090 C 
ENDBRANCH  17  19
ENDBRANCH   1  17
TORSDOF 5
