REMARK  Name = Vericiguat
REMARK  5 active torsions:
REMARK  status: ('A' for Active; 'I' for Inactive)
REMARK    1  A    between atoms: O_2  and  C_3
REMARK    2  A    between atoms: N_5  and  C_6
REMARK    3  A    between atoms: C_9  and  C_13
REMARK    4  A    between atoms: N_15  and  C_23
REMARK    5  A    between atoms: C_23  and  C_24
REMARK                            x       y       z     vdW  Elec       q    Type
REMARK                         _______ _______ _______ _____ _____    ______ ____
ROOT
ATOM      1  C   UNL     1      43.894  79.226  40.000  0.00  0.00    +0.140 A 
ATOM      2  N   UNL     1      42.838  79.387  39.221  0.00  0.00    -0.165 NA
ATOM      3  N   UNL     1      41.916  78.479  39.462  0.00  0.00    -0.229 N 
ATOM      4  C   UNL     1      42.386  77.692  40.439  0.00  0.00    +0.161 A 
ATOM      5  C   UNL     1      43.638  78.121  40.818  0.00  0.00    +0.060 A 
ATOM      6  C   UNL     1      44.367  77.498  41.807  0.00  0.00    +0.036 A 
ATOM      7  C   UNL     1      43.810  76.404  42.433  0.00  0.00    +0.159 A 
ATOM      8  C   UNL     1      42.557  76.012  42.021  0.00  0.00    +0.130 A 
ATOM      9  N   UNL     1      41.849  76.624  41.054  0.00  0.00    -0.223 NA
ATOM     10  F   UNL     1      44.447  75.724  43.419  0.00  0.00    -0.203 F 
ENDROOT
BRANCH   1  14
ATOM     11  C   UNL     1      47.478  81.337  40.282  0.00  0.00    +0.146 A 
ATOM     12  C   UNL     1      46.482  81.846  39.459  0.00  0.00    +0.189 A 
ATOM     13  N   UNL     1      45.345  81.130  39.400  0.00  0.00    -0.206 NA
ATOM     14  C   UNL     1      45.134  79.994  40.070  0.00  0.00    +0.185 A 
ATOM     15  N   UNL     1      46.109  79.524  40.858  0.00  0.00    -0.206 NA
ATOM     16  C   UNL     1      47.281  80.168  40.983  0.00  0.00    +0.189 A 
ATOM     17  N   UNL     1      48.342  79.707  41.806  0.00  0.00    -0.106 NA
ATOM     18  N   UNL     1      46.659  83.044  38.727  0.00  0.00    -0.106 NA
BRANCH  11  21
ATOM     19  C   UNL     1      49.028  82.838  41.500  0.00  0.00    +0.426 C 
ATOM     20  O   UNL     1      48.181  82.884  42.455  0.00  0.00    -0.224 OA
ATOM     21  N   UNL     1      48.678  82.100  40.341  0.00  0.00    -0.137 NA
BRANCH  19  23
ATOM     22  C   UNL     1      50.453  84.323  42.799  0.00  0.00    +0.257 C 
ATOM     23  O   UNL     1      50.222  83.509  41.667  0.00  0.00    -0.429 OA
ENDBRANCH  19  23
ENDBRANCH  11  21
ENDBRANCH   1  14
BRANCH   3  24
ATOM     24  C   UNL     1      40.610  78.335  38.798  0.00  0.00    +0.158 C 
BRANCH  24  25
ATOM     25  C   UNL     1      40.608  77.202  37.876  0.00  0.00    +0.030 A 
ATOM     26  C   UNL     1      40.970  77.401  36.563  0.00  0.00    -0.000 A 
ATOM     27  C   UNL     1      40.983  76.360  35.643  0.00  0.00    -0.000 A 
ATOM     28  C   UNL     1      40.630  75.097  36.042  0.00  0.00    +0.002 A 
ATOM     29  C   UNL     1      40.265  74.882  37.352  0.00  0.00    +0.029 A 
ATOM     30  C   UNL     1      40.255  75.929  38.264  0.00  0.00    +0.138 A 
ATOM     31  F   UNL     1      39.888  75.642  39.529  0.00  0.00    -0.204 F 
ENDBRANCH  24  25
ENDBRANCH   3  24
TORSDOF 5
