REMARK  Name = Verteporfin
REMARK  24 active torsions:
REMARK  status: ('A' for Active; 'I' for Inactive)
REMARK    1  A    between atoms: C_3  and  C_52
REMARK    2  A    between atoms: C_11  and  C_38
REMARK    3  A    between atoms: C_18  and  C_32
REMARK    4  A    between atoms: C_19  and  C_28
REMARK    5  A    between atoms: C_28  and  O_30
REMARK    6  A    between atoms: C_32  and  O_34
REMARK    7  A    between atoms: C_38  and  C_39
REMARK    8  A    between atoms: C_39  and  C_40
REMARK    9  A    between atoms: C_40  and  O_42
REMARK   10  A    between atoms: C_44  and  C_47
REMARK   11  A    between atoms: C_47  and  C_48
REMARK   12  A    between atoms: C_48  and  C_49
REMARK   13  A    between atoms: C_56  and  C_105
REMARK   14  A    between atoms: C_64  and  C_91
REMARK   15  A    between atoms: C_71  and  C_85
REMARK   16  A    between atoms: C_72  and  C_81
REMARK   17  A    between atoms: C_81  and  O_83
REMARK   18  A    between atoms: C_85  and  O_87
REMARK   19  A    between atoms: C_91  and  C_92
REMARK   20  A    between atoms: C_92  and  C_93
REMARK   21  A    between atoms: C_96  and  C_99
REMARK   22  A    between atoms: C_99  and  C_100
REMARK   23  A    between atoms: C_100  and  C_101
REMARK   24  A    between atoms: C_101  and  O_103
REMARK                            x       y       z     vdW  Elec       q    Type
REMARK                         _______ _______ _______ _____ _____    ______ ____
ROOT
ATOM      1  C   UNL     1      42.771  82.281  38.686  0.00  0.00    +0.033 C 
ATOM      2  C   UNL     1      43.822  81.199  38.779  0.00  0.00    -0.003 A 
ATOM      3  C   UNL     1      45.155  81.430  39.018  0.00  0.00    +0.015 A 
ATOM      4  C   UNL     1      45.773  80.166  39.014  0.00  0.00    +0.082 A 
ATOM      5  C   UNL     1      47.162  80.060  39.230  0.00  0.00    +0.038 C 
ATOM      6  C   UNL     1      47.782  79.240  40.194  0.00  0.00    +0.079 C 
ATOM      7  N   UNL     1      47.028  78.325  40.830  0.00  0.00    -0.246 NA
ATOM      8  C   UNL     1      47.801  77.650  41.706  0.00  0.00    +0.079 C 
ATOM      9  C   UNL     1      47.178  76.652  42.469  0.00  0.00    +0.038 C 
ATOM     10  C   UNL     1      45.935  76.046  42.193  0.00  0.00    +0.079 A 
ATOM     11  C   UNL     1      45.813  74.651  42.360  0.00  0.00    -0.006 A 
ATOM     12  C   UNL     1      44.531  74.349  42.023  0.00  0.00    -0.007 A 
ATOM     13  C   UNL     1      43.905  75.558  41.658  0.00  0.00    +0.078 A 
ATOM     14  N   UNL     1      44.772  76.574  41.771  0.00  0.00    -0.246 NA
ATOM     15  C   UNL     1      42.557  75.529  41.232  0.00  0.00    +0.034 C 
ATOM     16  C   UNL     1      41.991  76.192  40.175  0.00  0.00    +0.064 C 
ATOM     17  C   UNL     1      40.751  76.138  39.318  0.00  0.00    +0.070 C 
ATOM     18  C   UNL     1      39.647  75.333  39.722  0.00  0.00    +0.136 C 
ATOM     19  C   UNL     1      38.336  76.017  39.755  0.00  0.00    +0.064 C 
ATOM     20  C   UNL     1      38.163  77.309  39.554  0.00  0.00    +0.002 C 
ATOM     21  C   UNL     1      39.341  78.103  39.265  0.00  0.00    -0.003 C 
ATOM     22  C   UNL     1      40.528  77.578  39.170  0.00  0.00    +0.001 C 
ATOM     23  C   UNL     1      41.875  78.128  39.016  0.00  0.00    +0.079 C 
ATOM     24  N   UNL     1      42.699  77.248  39.640  0.00  0.00    -0.250 NA
ATOM     25  C   UNL     1      42.392  79.269  38.434  0.00  0.00    +0.038 C 
ATOM     26  C   UNL     1      43.681  79.809  38.644  0.00  0.00    +0.079 A 
ATOM     27  N   UNL     1      44.867  79.196  38.785  0.00  0.00    -0.246 NA
ATOM     28  C   UNL     1      41.228  75.734  37.875  0.00  0.00    +0.011 C 
ATOM     29  C   UNL     1      43.957  72.950  42.070  0.00  0.00    +0.032 C 
ATOM     30  C   UNL     1      49.147  78.179  41.616  0.00  0.00    -0.006 C 
ATOM     31  C   UNL     1      49.141  79.142  40.702  0.00  0.00    -0.007 C 
ATOM     32  C   UNL     1      50.314  79.959  40.291  0.00  0.00    +0.032 C 
ENDROOT
BRANCH  19  33
ATOM     33  C   UNL     1      37.120  75.201  40.031  0.00  0.00    +0.338 C 
ATOM     34  O   UNL     1      37.042  74.086  39.490  0.00  0.00    -0.245 OA
BRANCH  33  35
ATOM     35  O   UNL     1      36.144  75.677  40.847  0.00  0.00    -0.442 OA
ATOM     36  C   UNL     1      36.380  76.669  41.855  0.00  0.00    +0.256 C 
ENDBRANCH  33  35
ENDBRANCH  19  33
BRANCH  18  37
ATOM     37  C   UNL     1      39.520  74.015  39.016  0.00  0.00    +0.322 C 
ATOM     38  O   UNL     1      39.975  73.919  37.860  0.00  0.00    -0.250 OA
BRANCH  37  39
ATOM     39  O   UNL     1      38.920  72.950  39.632  0.00  0.00    -0.444 OA
ATOM     40  C   UNL     1      37.970  73.195  40.681  0.00  0.00    +0.256 C 
ENDBRANCH  37  39
ENDBRANCH  18  37
BRANCH   3  41
ATOM     41  C   UNL     1      45.725  82.772  39.200  0.00  0.00    +0.001 C 
ATOM     42  C   UNL     1      46.874  83.183  38.796  0.00  0.00    +0.000 C 
ENDBRANCH   3  41
BRANCH  11  43
ATOM     43  C   UNL     1      46.839  73.643  42.802  0.00  0.00    +0.039 C 
BRANCH  43  44
ATOM     44  C   UNL     1      46.675  73.319  44.265  0.00  0.00    +0.114 C 
BRANCH  44  45
ATOM     45  C   UNL     1      47.716  74.073  45.010  0.00  0.00    +0.317 C 
ATOM     46  O   UNL     1      47.432  74.858  45.954  0.00  0.00    -0.250 OA
BRANCH  45  47
ATOM     47  O   UNL     1      49.057  73.939  44.687  0.00  0.00    -0.444 OA
ATOM     48  C   UNL     1      49.505  73.297  43.526  0.00  0.00    +0.256 C 
ENDBRANCH  45  47
ENDBRANCH  44  45
ENDBRANCH  43  44
ENDBRANCH  11  43
BRANCH  30  49
ATOM     49  C   UNL     1      50.316  77.719  42.423  0.00  0.00    +0.039 C 
BRANCH  49  50
ATOM     50  C   UNL     1      49.962  76.720  43.489  0.00  0.00    +0.119 C 
BRANCH  50  51
ATOM     51  C   UNL     1      50.971  76.604  44.567  0.00  0.00    +0.365 C 
ATOM     52  O   UNL     1      50.920  77.443  45.498  0.00  0.00    -0.246 OA
ATOM     53  O   UNL     1      51.954  75.642  44.613  0.00  0.00    -0.246 OA
ENDBRANCH  50  51
ENDBRANCH  49  50
ENDBRANCH  30  49
TORSDOF 12
REMARK  Name = Verteporfin
REMARK  24 active torsions:
REMARK  status: ('A' for Active; 'I' for Inactive)
REMARK    1  A    between atoms: C_3  and  C_52
REMARK    2  A    between atoms: C_11  and  C_38
REMARK    3  A    between atoms: C_18  and  C_32
REMARK    4  A    between atoms: C_19  and  C_28
REMARK    5  A    between atoms: C_28  and  O_30
REMARK    6  A    between atoms: C_32  and  O_34
REMARK    7  A    between atoms: C_38  and  C_39
REMARK    8  A    between atoms: C_39  and  C_40
REMARK    9  A    between atoms: C_40  and  O_42
REMARK   10  A    between atoms: C_44  and  C_47
REMARK   11  A    between atoms: C_47  and  C_48
REMARK   12  A    between atoms: C_48  and  C_49
REMARK   13  A    between atoms: C_56  and  C_105
REMARK   14  A    between atoms: C_64  and  C_91
REMARK   15  A    between atoms: C_71  and  C_85
REMARK   16  A    between atoms: C_72  and  C_81
REMARK   17  A    between atoms: C_81  and  O_83
REMARK   18  A    between atoms: C_85  and  O_87
REMARK   19  A    between atoms: C_91  and  C_92
REMARK   20  A    between atoms: C_92  and  C_93
REMARK   21  A    between atoms: C_96  and  C_99
REMARK   22  A    between atoms: C_99  and  C_100
REMARK   23  A    between atoms: C_100  and  C_101
REMARK   24  A    between atoms: C_101  and  O_103
REMARK                            x       y       z     vdW  Elec       q    Type
REMARK                         _______ _______ _______ _____ _____    ______ ____
ROOT
ATOM      1  C   UNL     1      44.508  71.181  41.094  0.00  0.00    +0.033 C 
ATOM      2  C   UNL     1      45.042  72.542  41.493  0.00  0.00    -0.003 A 
ATOM      3  C   UNL     1      46.333  72.816  41.860  0.00  0.00    +0.015 A 
ATOM      4  C   UNL     1      46.327  74.213  42.166  0.00  0.00    +0.082 A 
ATOM      5  C   UNL     1      47.526  74.846  42.571  0.00  0.00    +0.038 C 
ATOM      6  C   UNL     1      47.991  76.082  42.144  0.00  0.00    +0.079 C 
ATOM      7  N   UNL     1      47.147  76.942  41.570  0.00  0.00    -0.246 NA
ATOM      8  C   UNL     1      47.757  78.064  41.212  0.00  0.00    +0.079 C 
ATOM      9  C   UNL     1      47.044  79.069  40.593  0.00  0.00    +0.038 C 
ATOM     10  C   UNL     1      45.676  79.008  40.217  0.00  0.00    +0.079 A 
ATOM     11  C   UNL     1      44.857  80.124  40.458  0.00  0.00    -0.006 A 
ATOM     12  C   UNL     1      43.615  79.752  40.004  0.00  0.00    -0.007 A 
ATOM     13  C   UNL     1      43.719  78.443  39.510  0.00  0.00    +0.078 A 
ATOM     14  N   UNL     1      44.980  78.009  39.646  0.00  0.00    -0.246 NA
ATOM     15  C   UNL     1      42.569  77.813  39.002  0.00  0.00    +0.034 C 
ATOM     16  C   UNL     1      42.168  76.507  39.178  0.00  0.00    +0.064 C 
ATOM     17  C   UNL     1      40.981  75.653  38.838  0.00  0.00    +0.070 C 
ATOM     18  C   UNL     1      39.804  76.302  38.305  0.00  0.00    +0.136 C 
ATOM     19  C   UNL     1      38.583  76.129  39.123  0.00  0.00    +0.064 C 
ATOM     20  C   UNL     1      38.595  75.502  40.288  0.00  0.00    +0.002 C 
ATOM     21  C   UNL     1      39.787  74.912  40.887  0.00  0.00    -0.003 C 
ATOM     22  C   UNL     1      40.863  75.010  40.204  0.00  0.00    +0.001 C 
ATOM     23  C   UNL     1      42.257  74.691  40.488  0.00  0.00    +0.079 C 
ATOM     24  N   UNL     1      43.009  75.632  39.836  0.00  0.00    -0.250 NA
ATOM     25  C   UNL     1      42.941  73.758  41.234  0.00  0.00    +0.038 C 
ATOM     26  C   UNL     1      44.304  73.748  41.581  0.00  0.00    +0.079 A 
ATOM     27  N   UNL     1      45.108  74.731  41.992  0.00  0.00    -0.246 NA
ATOM     28  C   UNL     1      41.610  74.567  37.932  0.00  0.00    +0.011 C 
ATOM     29  C   UNL     1      42.402  80.659  40.051  0.00  0.00    +0.032 C 
ATOM     30  C   UNL     1      49.197  77.922  41.602  0.00  0.00    -0.006 C 
ATOM     31  C   UNL     1      49.318  76.761  42.147  0.00  0.00    -0.007 C 
ATOM     32  C   UNL     1      50.525  76.111  42.733  0.00  0.00    +0.032 C 
ENDROOT
BRANCH  19  33
ATOM     33  C   UNL     1      37.292  76.698  38.662  0.00  0.00    +0.338 C 
ATOM     34  O   UNL     1      36.217  76.414  39.184  0.00  0.00    -0.245 OA
BRANCH  33  35
ATOM     35  O   UNL     1      37.257  77.594  37.596  0.00  0.00    -0.442 OA
ATOM     36  C   UNL     1      38.387  78.054  36.920  0.00  0.00    +0.256 C 
ENDBRANCH  33  35
ENDBRANCH  19  33
BRANCH  18  37
ATOM     37  C   UNL     1      39.556  75.907  36.888  0.00  0.00    +0.322 C 
ATOM     38  O   UNL     1      40.397  75.322  36.201  0.00  0.00    -0.250 OA
BRANCH  37  39
ATOM     39  O   UNL     1      38.337  76.187  36.238  0.00  0.00    -0.444 OA
ATOM     40  C   UNL     1      37.098  75.809  36.800  0.00  0.00    +0.256 C 
ENDBRANCH  37  39
ENDBRANCH  18  37
BRANCH   3  41
ATOM     41  C   UNL     1      47.488  71.938  41.935  0.00  0.00    +0.001 C 
ATOM     42  C   UNL     1      48.424  72.027  42.818  0.00  0.00    +0.000 C 
ENDBRANCH   3  41
BRANCH  11  43
ATOM     43  C   UNL     1      45.162  81.453  41.071  0.00  0.00    +0.039 C 
BRANCH  43  44
ATOM     44  C   UNL     1      46.516  81.910  40.648  0.00  0.00    +0.119 C 
BRANCH  44  45
ATOM     45  C   UNL     1      46.877  83.290  40.984  0.00  0.00    +0.365 C 
ATOM     46  O   UNL     1      46.045  84.210  40.757  0.00  0.00    -0.246 OA
ATOM     47  O   UNL     1      48.092  83.657  41.545  0.00  0.00    -0.246 OA
ENDBRANCH  44  45
ENDBRANCH  43  44
ENDBRANCH  11  43
BRANCH  30  48
ATOM     48  C   UNL     1      50.158  78.993  41.299  0.00  0.00    +0.039 C 
BRANCH  48  49
ATOM     49  C   UNL     1      49.896  80.378  41.690  0.00  0.00    +0.114 C 
BRANCH  49  50
ATOM     50  C   UNL     1      50.024  80.657  43.134  0.00  0.00    +0.317 C 
ATOM     51  O   UNL     1      50.648  79.865  43.868  0.00  0.00    -0.250 OA
BRANCH  50  52
ATOM     52  O   UNL     1      49.463  81.788  43.712  0.00  0.00    -0.444 OA
ATOM     53  C   UNL     1      48.558  82.639  43.065  0.00  0.00    +0.256 C 
ENDBRANCH  50  52
ENDBRANCH  49  50
ENDBRANCH  48  49
ENDBRANCH  30  48
TORSDOF 12
