REMARK  Name = Vibegron
REMARK  6 active torsions:
REMARK  status: ('A' for Active; 'I' for Inactive)
REMARK    1  A    between atoms: C_3  and  C_26
REMARK    2  A    between atoms: C_5  and  C_6
REMARK    3  A    between atoms: C_6  and  C_7
REMARK    4  A    between atoms: C_10  and  N_13
REMARK    5  A    between atoms: C_14  and  C_16
REMARK    6  A    between atoms: C_26  and  C_27
REMARK                            x       y       z     vdW  Elec       q    Type
REMARK                         _______ _______ _______ _____ _____    ______ ____
ROOT
ATOM      1  C   UNL     1      44.502  78.799  40.994  0.00  0.00    -0.021 A 
ATOM      2  C   UNL     1      43.497  79.294  40.154  0.00  0.00    -0.003 A 
ATOM      3  C   UNL     1      42.807  78.420  39.323  0.00  0.00    +0.016 A 
ATOM      4  C   UNL     1      43.086  77.071  39.302  0.00  0.00    +0.073 A 
ATOM      5  C   UNL     1      44.079  76.617  40.140  0.00  0.00    +0.016 A 
ATOM      6  C   UNL     1      44.790  77.453  40.983  0.00  0.00    -0.003 A 
ENDROOT
BRANCH   4   7
ATOM      7  N   UNL     1      42.384  76.171  38.453  0.00  0.00    -0.178 NA
ATOM      8  C   UNL     1      41.072  76.362  37.993  0.00  0.00    +0.266 C 
ATOM      9  O   UNL     1      40.452  77.391  38.365  0.00  0.00    -0.271 OA
BRANCH   8  10
ATOM     10  C   UNL     1      40.365  75.415  37.084  0.00  0.00    +0.168 C 
ATOM     11  C   UNL     1      39.976  76.173  35.835  0.00  0.00    +0.040 C 
ATOM     12  C   UNL     1      38.775  75.361  35.362  0.00  0.00    +0.066 C 
ATOM     13  C   UNL     1      38.164  74.983  36.661  0.00  0.00    +0.123 A 
ATOM     14  N   UNL     1      36.903  74.635  36.972  0.00  0.00    -0.231 NA
ATOM     15  C   UNL     1      36.541  74.325  38.216  0.00  0.00    +0.105 A 
ATOM     16  C   UNL     1      37.502  74.365  39.210  0.00  0.00    +0.081 A 
ATOM     17  C   UNL     1      38.786  74.716  38.913  0.00  0.00    +0.264 A 
ATOM     18  O   UNL     1      39.652  74.749  39.824  0.00  0.00    -0.267 OA
ATOM     19  N   UNL     1      39.085  75.017  37.637  0.00  0.00    -0.277 N 
ENDBRANCH   8  10
ENDBRANCH   4   7
BRANCH   1  20
ATOM     20  C   UNL     1      45.248  79.724  41.873  0.00  0.00    +0.044 C 
BRANCH  20  25
ATOM     21  C   UNL     1      46.795  81.075  40.404  0.00  0.00    +0.019 C 
ATOM     22  C   UNL     1      47.026  82.219  41.368  0.00  0.00    +0.022 C 
ATOM     23  C   UNL     1      47.879  81.565  42.432  0.00  0.00    +0.107 C 
ATOM     24  N   UNL     1      47.494  80.186  42.474  0.00  0.00    -0.218 NA
ATOM     25  C   UNL     1      46.628  79.923  41.334  0.00  0.00    +0.077 C 
BRANCH  23  26
ATOM     26  C   UNL     1      49.331  81.727  42.013  0.00  0.00    +0.190 C 
ATOM     27  O   UNL     1      49.351  81.618  40.625  0.00  0.00    -0.217 OA
BRANCH  26  28
ATOM     28  C   UNL     1      49.848  83.016  42.499  0.00  0.00    +0.009 A 
ATOM     29  C   UNL     1      49.068  83.943  43.154  0.00  0.00    -0.002 A 
ATOM     30  C   UNL     1      49.589  85.131  43.590  0.00  0.00    -0.000 A 
ATOM     31  C   UNL     1      50.917  85.410  43.372  0.00  0.00    -0.000 A 
ATOM     32  C   UNL     1      51.704  84.485  42.716  0.00  0.00    -0.000 A 
ATOM     33  C   UNL     1      51.181  83.300  42.283  0.00  0.00    -0.002 A 
ENDBRANCH  26  28
ENDBRANCH  23  26
ENDBRANCH  20  25
ENDBRANCH   1  20
TORSDOF 6
