REMARK  Name = Vidarabine
REMARK  2 active torsions:
REMARK  status: ('A' for Active; 'I' for Inactive)
REMARK    1  A    between atoms: N9_7  and  C1*_10
REMARK    2  A    between atoms: C4*_13  and  C5*_15
REMARK                            x       y       z     vdW  Elec       q    Type
REMARK                         _______ _______ _______ _____ _____    ______ ____
ROOT
ATOM      1  C2    A A   1      44.162  80.524  38.177  0.00  0.00    +0.202 A 
ATOM      2  N1    A A   1      44.734  81.738  38.341  0.00  0.00    -0.204 NA
ATOM      3  C6    A A   1      45.709  81.926  39.271  0.00  0.00    +0.192 A 
ATOM      4  C5    A A   1      46.078  80.842  40.022  0.00  0.00    +0.152 A 
ATOM      5  C4    A A   1      45.493  79.596  39.856  0.00  0.00    +0.169 A 
ATOM      6  N3    A A   1      44.536  79.487  38.918  0.00  0.00    -0.205 NA
ATOM      7  N9    A A   1      46.039  78.719  40.717  0.00  0.00    -0.269 N 
ATOM      8  C8    A A   1      46.954  79.402  41.415  0.00  0.00    +0.182 A 
ATOM      9  N7    A A   1      46.985  80.691  41.001  0.00  0.00    -0.219 NA
ATOM     10  N6    A A   1      46.288  83.206  39.419  0.00  0.00    -0.105 NA
ENDROOT
BRANCH   7  11
ATOM     11  C1*   A A   1      45.657  77.314  40.814  0.00  0.00    +0.241 C 
ATOM     12  C2*   A A   1      44.174  77.185  40.952  0.00  0.00    +0.234 C 
ATOM     13  C3*   A A   1      44.048  76.777  42.406  0.00  0.00    +0.216 C 
ATOM     14  C4*   A A   1      45.306  75.945  42.547  0.00  0.00    +0.183 C 
ATOM     15  O4*   A A   1      46.255  76.684  41.880  0.00  0.00    -0.331 OA
ATOM     16  O3*   A A   1      42.901  76.028  42.636  0.00  0.00    -0.218 OA
ATOM     17  O2*   A A   1      43.742  76.117  40.186  0.00  0.00    -0.216 OA
BRANCH  14  18
ATOM     18  C5*   A A   1      45.646  75.716  44.003  0.00  0.00    +0.214 C 
ATOM     19  O5*   A A   1      46.198  76.915  44.485  0.00  0.00    -0.218 OA
ENDBRANCH  14  18
ENDBRANCH   7  11
TORSDOF 2
