REMARK  Name = Vilanterol
REMARK  16 active torsions:
REMARK  status: ('A' for Active; 'I' for Inactive)
REMARK    1  A    between atoms: C_4  and  C_8
REMARK    2  A    between atoms: C_8  and  O_9
REMARK    3  A    between atoms: O_9  and  C_10
REMARK    4  A    between atoms: C_10  and  C_11
REMARK    5  A    between atoms: C_11  and  O_12
REMARK    6  A    between atoms: O_12  and  C_13
REMARK    7  A    between atoms: C_13  and  C_14
REMARK    8  A    between atoms: C_14  and  C_15
REMARK    9  A    between atoms: C_15  and  C_16
REMARK   10  A    between atoms: C_16  and  C_17
REMARK   11  A    between atoms: C_17  and  C_18
REMARK   12  A    between atoms: C_18  and  N_19
REMARK   13  A    between atoms: N_19  and  C_20
REMARK   14  A    between atoms: C_20  and  C_21
REMARK   15  A    between atoms: C_21  and  C_22
REMARK   16  A    between atoms: C_24  and  C_29
REMARK                            x       y       z     vdW  Elec       q    Type
REMARK                         _______ _______ _______ _____ _____    ______ ____
ROOT
ATOM      1  C   UNL     1      42.894  77.809  39.243  0.00  0.00    +0.003 C 
ENDROOT
BRANCH   1   2
ATOM      2  C   UNL     1      42.081  76.575  39.253  0.00  0.00    +0.002 C 
BRANCH   2   3
ATOM      3  C   UNL     1      40.587  76.799  39.103  0.00  0.00    +0.019 C 
BRANCH   3   4
ATOM      4  C   UNL     1      40.083  76.031  37.925  0.00  0.00    +0.089 C 
BRANCH   4   5
ATOM      5  N   UNL     1      39.845  76.864  36.814  0.00  0.00    -0.215 NA
BRANCH   5   6
ATOM      6  C   UNL     1      39.765  76.157  35.577  0.00  0.00    +0.126 C 
BRANCH   6   7
ATOM      7  C   UNL     1      38.983  74.904  35.734  0.00  0.00    +0.192 C 
ATOM      8  O   UNL     1      39.549  73.969  36.614  0.00  0.00    -0.217 OA
BRANCH   7   9
ATOM      9  C   UNL     1      38.595  74.250  34.469  0.00  0.00    +0.009 A 
ATOM     10  C   UNL     1      37.453  74.733  33.817  0.00  0.00    -0.000 A 
ATOM     11  C   UNL     1      37.017  74.177  32.633  0.00  0.00    +0.049 A 
ATOM     12  C   UNL     1      37.685  73.127  32.043  0.00  0.00    +0.194 A 
ATOM     13  C   UNL     1      38.807  72.652  32.683  0.00  0.00    +0.042 A 
ATOM     14  C   UNL     1      39.260  73.210  33.889  0.00  0.00    +0.001 A 
ATOM     15  O   UNL     1      37.262  72.554  30.850  0.00  0.00    -0.287 OA
BRANCH  11  16
ATOM     16  C   UNL     1      35.795  74.720  31.961  0.00  0.00    +0.212 C 
ATOM     17  O   UNL     1      36.081  76.010  31.517  0.00  0.00    -0.215 OA
ENDBRANCH  11  16
ENDBRANCH   7   9
ENDBRANCH   6   7
ENDBRANCH   5   6
ENDBRANCH   4   5
ENDBRANCH   3   4
ENDBRANCH   2   3
ENDBRANCH   1   2
BRANCH   1  18
ATOM     18  C   UNL     1      43.388  78.278  40.594  0.00  0.00    +0.032 C 
BRANCH  18  19
ATOM     19  C   UNL     1      44.331  79.432  40.425  0.00  0.00    +0.142 C 
BRANCH  19  20
ATOM     20  O   UNL     1      44.851  79.936  41.564  0.00  0.00    -0.351 OA
BRANCH  20  21
ATOM     21  C   UNL     1      46.177  80.230  41.639  0.00  0.00    +0.174 C 
BRANCH  21  22
ATOM     22  C   UNL     1      46.520  81.674  41.887  0.00  0.00    +0.175 C 
BRANCH  22  23
ATOM     23  O   UNL     1      47.760  82.067  41.917  0.00  0.00    -0.346 OA
BRANCH  23  24
ATOM     24  C   UNL     1      48.343  83.237  41.897  0.00  0.00    +0.170 C 
BRANCH  24  28
ATOM     25  C   UNL     1      51.977  83.768  44.028  0.00  0.00    +0.002 A 
ATOM     26  C   UNL     1      52.001  83.092  42.828  0.00  0.00    +0.011 A 
ATOM     27  C   UNL     1      50.836  82.899  42.075  0.00  0.00    +0.057 A 
ATOM     28  C   UNL     1      49.671  83.399  42.561  0.00  0.00    +0.028 A 
ATOM     29  C   UNL     1      49.633  84.091  43.782  0.00  0.00    +0.057 A 
ATOM     30  C   UNL     1      50.779  84.273  44.510  0.00  0.00    +0.011 A 
ATOM     31 CL   UNL     1      48.089  84.731  44.393  0.00  0.00    -0.082 Cl
ATOM     32 CL   UNL     1      50.932  82.061  40.541  0.00  0.00    -0.082 Cl
ENDBRANCH  24  28
ENDBRANCH  23  24
ENDBRANCH  22  23
ENDBRANCH  21  22
ENDBRANCH  20  21
ENDBRANCH  19  20
ENDBRANCH  18  19
ENDBRANCH   1  18
TORSDOF 16
