REMARK  Name = Vilazodone
REMARK  8 active torsions:
REMARK  status: ('A' for Active; 'I' for Inactive)
REMARK    1  A    between atoms: N_3  and  C_22
REMARK    2  A    between atoms: N_6  and  C_7
REMARK    3  A    between atoms: C_7  and  C_8
REMARK    4  A    between atoms: C_8  and  C_9
REMARK    5  A    between atoms: C_9  and  C_10
REMARK    6  A    between atoms: C_10  and  C_11
REMARK    7  A    between atoms: C_17  and  C_20
REMARK    8  A    between atoms: C_29  and  C_31
REMARK                            x       y       z     vdW  Elec       q    Type
REMARK                         _______ _______ _______ _____ _____    ______ ____
ROOT
ATOM      1  C   UNL     1      40.734  77.842  37.943  0.00  0.00    +0.094 C 
ATOM      2  C   UNL     1      40.502  77.147  36.651  0.00  0.00    +0.108 C 
ATOM      3  N   UNL     1      40.174  75.776  36.805  0.00  0.00    -0.305 N 
ATOM      4  C   UNL     1      40.790  74.969  37.868  0.00  0.00    +0.108 C 
ATOM      5  C   UNL     1      40.625  75.784  39.133  0.00  0.00    +0.094 C 
ATOM      6  N   UNL     1      41.284  77.067  38.990  0.00  0.00    -0.270 NA
ENDROOT
BRANCH   3   7
ATOM      7  C   UNL     1      39.233  75.147  35.941  0.00  0.00    +0.048 A 
ATOM      8  C   UNL     1      38.289  75.935  35.291  0.00  0.00    +0.018 A 
ATOM      9  C   UNL     1      37.383  75.375  34.445  0.00  0.00    +0.039 A 
ATOM     10  C   UNL     1      37.389  74.011  34.217  0.00  0.00    +0.146 A 
ATOM     11  C   UNL     1      38.311  73.224  34.846  0.00  0.00    +0.039 A 
ATOM     12  C   UNL     1      39.227  73.813  35.708  0.00  0.00    +0.018 A 
ATOM     13  O   UNL     1      36.413  73.724  33.364  0.00  0.00    -0.449 OA
ATOM     14  C   UNL     1      35.768  74.816  33.017  0.00  0.00    +0.202 A 
ATOM     15  C   UNL     1      36.347  75.872  33.675  0.00  0.00    +0.045 A 
BRANCH  14  16
ATOM     16  C   UNL     1      34.644  74.934  32.110  0.00  0.00    +0.319 C 
ATOM     17  O   UNL     1      34.805  74.965  30.843  0.00  0.00    -0.263 OA
ATOM     18  N   UNL     1      33.308  75.022  32.558  0.00  0.00    -0.081 NA
ENDBRANCH  14  16
ENDBRANCH   3   7
BRANCH   6  19
ATOM     19  C   UNL     1      42.705  76.959  38.979  0.00  0.00    +0.072 C 
BRANCH  19  20
ATOM     20  C   UNL     1      43.376  78.261  39.273  0.00  0.00    +0.018 C 
BRANCH  20  21
ATOM     21  C   UNL     1      44.514  78.177  40.262  0.00  0.00    +0.006 C 
BRANCH  21  22
ATOM     22  C   UNL     1      44.554  79.456  41.076  0.00  0.00    +0.028 C 
BRANCH  22  23
ATOM     23  C   UNL     1      45.052  80.594  40.278  0.00  0.00    -0.002 A 
ATOM     24  C   UNL     1      44.499  81.151  39.120  0.00  0.00    +0.095 A 
ATOM     25  N   UNL     1      45.286  82.161  38.709  0.00  0.00    -0.244 NA
ATOM     26  C   UNL     1      46.332  82.302  39.540  0.00  0.00    +0.081 A 
ATOM     27  C   UNL     1      46.195  81.328  40.520  0.00  0.00    +0.016 A 
ATOM     28  C   UNL     1      47.148  81.259  41.546  0.00  0.00    +0.012 A 
ATOM     29  C   UNL     1      48.214  82.103  41.638  0.00  0.00    +0.069 A 
ATOM     30  C   UNL     1      48.341  83.080  40.638  0.00  0.00    +0.012 A 
ATOM     31  C   UNL     1      47.405  83.154  39.624  0.00  0.00    +0.020 A 
BRANCH  29  32
ATOM     32  C   UNL     1      49.149  82.028  42.710  0.00  0.00    +0.100 C 
ATOM     33  N   UNL     1      49.946  81.976  43.595  0.00  0.00    -0.191 NA
ENDBRANCH  29  32
ENDBRANCH  22  23
ENDBRANCH  21  22
ENDBRANCH  20  21
ENDBRANCH  19  20
ENDBRANCH   6  19
TORSDOF 8
