REMARK  Name = Viloxazine
REMARK  5 active torsions:
REMARK  status: ('A' for Active; 'I' for Inactive)
REMARK    1  A    between atoms: C_2  and  O_3
REMARK    2  A    between atoms: O_3  and  C_4
REMARK    3  A    between atoms: C_9  and  O_10
REMARK    4  A    between atoms: O_10  and  C_11
REMARK    5  A    between atoms: C_11  and  C_12
REMARK                            x       y       z     vdW  Elec       q    Type
REMARK                         _______ _______ _______ _____ _____    ______ ____
ROOT
ATOM      1  C   UNL     1      49.461  83.022  43.084  0.00  0.00    +0.172 A 
ATOM      2  C   UNL     1      50.591  83.361  43.773  0.00  0.00    +0.040 A 
ATOM      3  C   UNL     1      51.690  82.507  43.727  0.00  0.00    +0.003 A 
ATOM      4  C   UNL     1      51.625  81.346  42.996  0.00  0.00    +0.003 A 
ATOM      5  C   UNL     1      50.458  81.034  42.306  0.00  0.00    +0.040 A 
ATOM      6  C   UNL     1      49.343  81.841  42.319  0.00  0.00    +0.172 A 
ENDROOT
BRANCH   1   7
ATOM      7  O   UNL     1      48.333  83.856  43.104  0.00  0.00    -0.472 OA
BRANCH   7   9
ATOM      8  C   UNL     1      47.257  85.984  43.474  0.00  0.00    +0.051 C 
ATOM      9  C   UNL     1      48.499  85.156  43.628  0.00  0.00    +0.206 C 
ENDBRANCH   7   9
ENDBRANCH   1   7
BRANCH   6  10
ATOM     10  O   UNL     1      48.171  81.621  41.688  0.00  0.00    -0.470 OA
BRANCH  10  11
ATOM     11  C   UNL     1      47.658  80.811  40.757  0.00  0.00    +0.236 C 
BRANCH  11  12
ATOM     12  C   UNL     1      46.233  80.943  40.328  0.00  0.00    +0.176 C 
ATOM     13  C   UNL     1      46.283  81.732  39.003  0.00  0.00    +0.122 C 
ATOM     14  N   UNL     1      44.943  82.000  38.517  0.00  0.00    -0.213 NA
ATOM     15  C   UNL     1      44.336  80.682  38.272  0.00  0.00    +0.121 C 
ATOM     16  C   UNL     1      44.293  80.000  39.633  0.00  0.00    +0.161 C 
ATOM     17  O   UNL     1      45.550  79.783  40.137  0.00  0.00    -0.349 OA
ENDBRANCH  11  12
ENDBRANCH  10  11
ENDBRANCH   6  10
TORSDOF 5
