REMARK  Name = Vinblastine
REMARK  10 active torsions:
REMARK  status: ('A' for Active; 'I' for Inactive)
REMARK    1  A    between atoms: C_2  and  C_3
REMARK    2  A    between atoms: C_7  and  C_22
REMARK    3  A    between atoms: C_7  and  C_55
REMARK    4  A    between atoms: C_23  and  O_53
REMARK    5  A    between atoms: C_33  and  C_51
REMARK    6  A    between atoms: C_37  and  O_47
REMARK    7  A    between atoms: C_38  and  C_42
REMARK    8  A    between atoms: C_42  and  O_44
REMARK    9  A    between atoms: O_47  and  C_48
REMARK   10  A    between atoms: C_55  and  O_57
REMARK                            x       y       z     vdW  Elec       q    Type
REMARK                         _______ _______ _______ _____ _____    ______ ____
ROOT
ATOM      1  C   UNL     1      45.706  79.682  40.860  0.00  0.00    +0.026 A 
ATOM      2  C   UNL     1      45.124  80.739  40.163  0.00  0.00    +0.137 A 
ATOM      3  C   UNL     1      45.462  82.059  40.350  0.00  0.00    +0.051 A 
ATOM      4  C   UNL     1      46.444  82.389  41.290  0.00  0.00    +0.047 A 
ATOM      5  C   UNL     1      47.037  81.380  41.993  0.00  0.00    -0.007 A 
ATOM      6  C   UNL     1      46.664  80.037  41.771  0.00  0.00    -0.003 A 
ATOM      7  C   UNL     1      48.029  81.964  42.927  0.00  0.00    +0.055 C 
ATOM      8  C   UNL     1      47.462  82.007  44.320  0.00  0.00    +0.024 C 
ATOM      9  C   UNL     1      48.103  80.826  44.991  0.00  0.00    +0.073 C 
ATOM     10  N   UNL     1      48.989  80.220  44.061  0.00  0.00    -0.269 NA
ATOM     11  C   UNL     1      49.276  81.151  43.023  0.00  0.00    +0.070 C 
ATOM     12  C   UNL     1      50.550  81.897  43.179  0.00  0.00    +0.072 C 
ATOM     13  C   UNL     1      51.618  80.847  43.160  0.00  0.00    -0.025 C 
ATOM     14  C   UNL     1      51.369  79.731  43.820  0.00  0.00    -0.013 C 
ATOM     15  C   UNL     1      50.090  79.488  44.565  0.00  0.00    +0.099 C 
ATOM     16  C   UNL     1      50.683  82.914  42.094  0.00  0.00    +0.213 C 
ATOM     17  C   UNL     1      49.401  83.197  41.342  0.00  0.00    +0.268 C 
ATOM     18  C   UNL     1      48.279  83.336  42.349  0.00  0.00    +0.120 C 
ATOM     19  N   UNL     1      47.002  83.644  41.696  0.00  0.00    -0.304 N 
ATOM     20  C   UNL     1      46.397  84.922  41.484  0.00  0.00    +0.112 C 
ATOM     21  O   UNL     1      49.061  82.197  40.467  0.00  0.00    -0.209 OA
ENDROOT
BRANCH   1  26
ATOM     22  C   UNL     1      43.526  74.688  43.452  0.00  0.00    +0.141 C 
ATOM     23  C   UNL     1      44.415  75.893  43.437  0.00  0.00    +0.033 C 
ATOM     24  C   UNL     1      44.663  76.299  41.948  0.00  0.00    +0.020 C 
ATOM     25  C   UNL     1      45.526  77.486  41.853  0.00  0.00    +0.022 C 
ATOM     26  C   UNL     1      45.333  78.274  40.548  0.00  0.00    +0.146 C 
ATOM     27  C   UNL     1      43.907  78.156  40.120  0.00  0.00    +0.068 A 
ATOM     28  C   UNL     1      43.306  77.139  39.472  0.00  0.00    -0.005 A 
ATOM     29  C   UNL     1      43.902  75.826  39.066  0.00  0.00    +0.045 C 
ATOM     30  C   UNL     1      43.310  74.683  39.852  0.00  0.00    +0.077 C 
ATOM     31  N   UNL     1      43.997  74.277  41.021  0.00  0.00    -0.270 NA
ATOM     32  C   UNL     1      45.177  75.017  41.372  0.00  0.00    +0.072 C 
ATOM     33  C   UNL     1      43.171  74.094  42.151  0.00  0.00    +0.103 C 
ATOM     34  C   UNL     1      41.970  77.534  39.271  0.00  0.00    +0.015 A 
ATOM     35  C   UNL     1      40.876  76.923  38.668  0.00  0.00    +0.001 A 
ATOM     36  C   UNL     1      39.648  77.576  38.617  0.00  0.00    +0.000 A 
ATOM     37  C   UNL     1      39.470  78.826  39.150  0.00  0.00    +0.002 A 
ATOM     38  C   UNL     1      40.552  79.415  39.740  0.00  0.00    +0.019 A 
ATOM     39  C   UNL     1      41.783  78.769  39.795  0.00  0.00    +0.081 A 
ATOM     40  N   UNL     1      42.966  79.135  40.307  0.00  0.00    -0.249 NA
ATOM     41  O   UNL     1      42.302  75.141  44.024  0.00  0.00    -0.224 OA
BRANCH  22  43
ATOM     42  C   UNL     1      45.075  72.747  43.830  0.00  0.00    +0.003 C 
ATOM     43  C   UNL     1      44.008  73.629  44.432  0.00  0.00    +0.032 C 
ENDBRANCH  22  43
BRANCH  26  44
ATOM     44  C   UNL     1      46.273  77.832  39.492  0.00  0.00    +0.325 C 
ATOM     45  O   UNL     1      46.862  76.692  39.538  0.00  0.00    -0.249 OA
BRANCH  44  46
ATOM     46  O   UNL     1      46.590  78.606  38.379  0.00  0.00    -0.444 OA
ATOM     47  C   UNL     1      45.722  79.639  37.960  0.00  0.00    +0.256 C 
ENDBRANCH  44  46
ENDBRANCH  26  44
ENDBRANCH   1  26
BRANCH  17  48
ATOM     48  C   UNL     1      49.610  84.452  40.590  0.00  0.00    +0.350 C 
ATOM     49  O   UNL     1      49.651  84.441  39.351  0.00  0.00    -0.247 OA
BRANCH  48  50
ATOM     50  O   UNL     1      49.760  85.640  41.271  0.00  0.00    -0.443 OA
ATOM     51  C   UNL     1      48.650  86.367  41.793  0.00  0.00    +0.256 C 
ENDBRANCH  48  50
ENDBRANCH  17  48
BRANCH  12  52
ATOM     52  C   UNL     1      50.713  82.582  44.514  0.00  0.00    +0.009 C 
ATOM     53  C   UNL     1      51.911  83.507  44.487  0.00  0.00    +0.001 C 
ENDBRANCH  12  52
BRANCH   2  54
ATOM     54  O   UNL     1      44.159  80.461  39.240  0.00  0.00    -0.472 OA
ATOM     55  C   UNL     1      43.452  81.448  38.513  0.00  0.00    +0.252 C 
ENDBRANCH   2  54
BRANCH  16  56
ATOM     56  O   UNL     1      51.702  82.460  41.188  0.00  0.00    -0.449 OA
BRANCH  56  57
ATOM     57  C   UNL     1      52.837  83.189  40.911  0.00  0.00    +0.318 C 
ATOM     58  O   UNL     1      53.724  83.279  41.797  0.00  0.00    -0.250 OA
ATOM     59  C   UNL     1      53.091  83.882  39.629  0.00  0.00    +0.121 C 
ENDBRANCH  56  57
ENDBRANCH  16  56
TORSDOF 10
