REMARK  Name = Vindesine
REMARK  7 active torsions:
REMARK  status: ('A' for Active; 'I' for Inactive)
REMARK    1  A    between atoms: C_2  and  C_3
REMARK    2  A    between atoms: C_7  and  C_22
REMARK    3  A    between atoms: C_7  and  C_51
REMARK    4  A    between atoms: C_23  and  O_49
REMARK    5  A    between atoms: C_33  and  C_47
REMARK    6  A    between atoms: C_38  and  C_42
REMARK    7  A    between atoms: C_51  and  O_53
REMARK                            x       y       z     vdW  Elec       q    Type
REMARK                         _______ _______ _______ _____ _____    ______ ____
ROOT
ATOM      1  C   UNL     1      45.862  80.046  40.481  0.00  0.00    +0.026 A 
ATOM      2  C   UNL     1      45.172  81.221  40.147  0.00  0.00    +0.137 A 
ATOM      3  C   UNL     1      45.594  82.378  40.758  0.00  0.00    +0.051 A 
ATOM      4  C   UNL     1      46.642  82.371  41.649  0.00  0.00    +0.047 A 
ATOM      5  C   UNL     1      47.323  81.213  41.980  0.00  0.00    -0.007 A 
ATOM      6  C   UNL     1      46.890  80.049  41.359  0.00  0.00    -0.003 A 
ATOM      7  C   UNL     1      48.329  81.596  42.952  0.00  0.00    +0.055 C 
ATOM      8  C   UNL     1      47.726  81.333  44.320  0.00  0.00    +0.024 C 
ATOM      9  C   UNL     1      48.121  79.871  44.493  0.00  0.00    +0.073 C 
ATOM     10  N   UNL     1      48.926  79.527  43.368  0.00  0.00    -0.270 NA
ATOM     11  C   UNL     1      49.562  80.796  43.096  0.00  0.00    +0.069 C 
ATOM     12  C   UNL     1      50.580  80.891  42.072  0.00  0.00    +0.063 C 
ATOM     13  C   UNL     1      50.844  79.562  41.491  0.00  0.00    -0.026 C 
ATOM     14  C   UNL     1      50.550  78.469  42.142  0.00  0.00    -0.013 C 
ATOM     15  C   UNL     1      49.931  78.551  43.505  0.00  0.00    +0.099 C 
ATOM     16  C   UNL     1      50.293  81.926  41.006  0.00  0.00    +0.195 C 
ATOM     17  C   UNL     1      49.343  83.002  41.299  0.00  0.00    +0.242 C 
ATOM     18  C   UNL     1      48.640  82.983  42.630  0.00  0.00    +0.117 C 
ATOM     19  N   UNL     1      47.264  83.460  42.378  0.00  0.00    -0.304 N 
ATOM     20  C   UNL     1      46.611  84.669  42.722  0.00  0.00    +0.112 C 
ATOM     21  O   UNL     1      48.330  82.958  40.304  0.00  0.00    -0.212 OA
ATOM     22  O   UNL     1      49.858  81.195  39.898  0.00  0.00    -0.220 OA
ENDROOT
BRANCH   1  27
ATOM     23  C   UNL     1      40.657  77.669  39.168  0.00  0.00    +0.141 C 
ATOM     24  C   UNL     1      41.533  78.895  39.027  0.00  0.00    +0.033 C 
ATOM     25  C   UNL     1      42.949  78.330  39.206  0.00  0.00    +0.020 C 
ATOM     26  C   UNL     1      44.017  79.349  39.124  0.00  0.00    +0.022 C 
ATOM     27  C   UNL     1      45.267  78.806  39.843  0.00  0.00    +0.146 C 
ATOM     28  C   UNL     1      44.783  77.833  40.868  0.00  0.00    +0.068 A 
ATOM     29  C   UNL     1      44.587  76.513  40.735  0.00  0.00    -0.005 A 
ATOM     30  C   UNL     1      44.706  75.614  39.583  0.00  0.00    +0.045 C 
ATOM     31  C   UNL     1      43.489  75.220  38.861  0.00  0.00    +0.077 C 
ATOM     32  N   UNL     1      42.477  76.135  38.604  0.00  0.00    -0.270 NA
ATOM     33  C   UNL     1      43.061  77.356  38.080  0.00  0.00    +0.072 C 
ATOM     34  C   UNL     1      41.439  76.402  39.499  0.00  0.00    +0.103 C 
ATOM     35  C   UNL     1      44.179  76.074  41.989  0.00  0.00    +0.015 A 
ATOM     36  C   UNL     1      43.822  74.828  42.525  0.00  0.00    +0.001 A 
ATOM     37  C   UNL     1      43.445  74.642  43.834  0.00  0.00    +0.000 A 
ATOM     38  C   UNL     1      43.411  75.729  44.681  0.00  0.00    +0.002 A 
ATOM     39  C   UNL     1      43.753  76.989  44.214  0.00  0.00    +0.019 A 
ATOM     40  C   UNL     1      44.130  77.131  42.874  0.00  0.00    +0.081 A 
ATOM     41  N   UNL     1      44.508  78.187  42.139  0.00  0.00    -0.249 NA
ATOM     42  O   UNL     1      40.078  77.451  37.904  0.00  0.00    -0.224 OA
BRANCH  23  44
ATOM     43  C   UNL     1      38.386  78.504  39.511  0.00  0.00    +0.003 C 
ATOM     44  C   UNL     1      39.573  77.854  40.187  0.00  0.00    +0.032 C 
ENDBRANCH  23  44
BRANCH  27  45
ATOM     45  C   UNL     1      46.303  78.376  38.946  0.00  0.00    +0.325 C 
ATOM     46  O   UNL     1      46.082  77.471  38.093  0.00  0.00    -0.249 OA
BRANCH  45  47
ATOM     47  O   UNL     1      47.586  78.890  38.934  0.00  0.00    -0.444 OA
ATOM     48  C   UNL     1      48.028  79.699  37.866  0.00  0.00    +0.256 C 
ENDBRANCH  45  47
ENDBRANCH  27  45
ENDBRANCH   1  27
BRANCH  17  49
ATOM     49  C   UNL     1      49.992  84.332  41.160  0.00  0.00    +0.292 C 
ATOM     50  O   UNL     1      51.228  84.421  41.165  0.00  0.00    -0.269 OA
ATOM     51  N   UNL     1      49.202  85.486  41.023  0.00  0.00    -0.086 NA
ENDBRANCH  17  49
BRANCH  12  52
ATOM     52  C   UNL     1      51.912  81.251  42.780  0.00  0.00    +0.008 C 
ATOM     53  C   UNL     1      51.703  82.157  43.939  0.00  0.00    +0.000 C 
ENDBRANCH  12  52
BRANCH   2  54
ATOM     54  O   UNL     1      44.121  81.205  39.241  0.00  0.00    -0.472 OA
ATOM     55  C   UNL     1      43.357  82.374  39.026  0.00  0.00    +0.252 C 
ENDBRANCH   2  54
TORSDOF 7
