REMARK  Name = Vinorelbine
REMARK  10 active torsions:
REMARK  status: ('A' for Active; 'I' for Inactive)
REMARK    1  A    between atoms: C_2  and  C_3
REMARK    2  A    between atoms: C_7  and  C_21
REMARK    3  A    between atoms: C_7  and  C_54
REMARK    4  A    between atoms: C_22  and  O_52
REMARK    5  A    between atoms: C_32  and  C_50
REMARK    6  A    between atoms: C_36  and  O_46
REMARK    7  A    between atoms: C_37  and  C_41
REMARK    8  A    between atoms: C_41  and  O_43
REMARK    9  A    between atoms: O_46  and  C_47
REMARK   10  A    between atoms: C_54  and  O_56
REMARK                            x       y       z     vdW  Elec       q    Type
REMARK                         _______ _______ _______ _____ _____    ______ ____
ROOT
ATOM      1  C   UNL     1      44.509  79.472  39.578  0.00  0.00    +0.026 A 
ATOM      2  C   UNL     1      44.563  80.461  38.620  0.00  0.00    +0.137 A 
ATOM      3  C   UNL     1      45.415  81.560  38.780  0.00  0.00    +0.051 A 
ATOM      4  C   UNL     1      46.229  81.700  39.885  0.00  0.00    +0.047 A 
ATOM      5  C   UNL     1      46.186  80.734  40.834  0.00  0.00    -0.007 A 
ATOM      6  C   UNL     1      45.331  79.634  40.673  0.00  0.00    -0.003 A 
ATOM      7  C   UNL     1      47.156  81.119  41.921  0.00  0.00    +0.055 C 
ATOM      8  C   UNL     1      46.484  80.702  43.176  0.00  0.00    +0.024 C 
ATOM      9  C   UNL     1      47.109  79.378  43.550  0.00  0.00    +0.073 C 
ATOM     10  N   UNL     1      48.242  79.243  42.854  0.00  0.00    -0.269 NA
ATOM     11  C   UNL     1      48.364  80.302  41.891  0.00  0.00    +0.070 C 
ATOM     12  C   UNL     1      49.683  80.890  42.302  0.00  0.00    +0.072 C 
ATOM     13  C   UNL     1      50.603  79.875  41.614  0.00  0.00    -0.025 C 
ATOM     14  C   UNL     1      50.201  78.615  41.678  0.00  0.00    -0.013 C 
ATOM     15  C   UNL     1      48.930  78.155  42.371  0.00  0.00    +0.099 C 
ATOM     16  C   UNL     1      49.864  82.242  41.806  0.00  0.00    +0.213 C 
ATOM     17  C   UNL     1      48.689  83.149  42.034  0.00  0.00    +0.268 C 
ATOM     18  C   UNL     1      47.357  82.575  41.671  0.00  0.00    +0.120 C 
ATOM     19  N   UNL     1      47.176  82.747  40.245  0.00  0.00    -0.304 N 
ATOM     20  C   UNL     1      47.717  83.679  39.279  0.00  0.00    +0.112 C 
ATOM     21  O   UNL     1      48.962  84.205  41.081  0.00  0.00    -0.209 OA
ENDROOT
BRANCH   1  26
ATOM     22  C   UNL     1      40.240  76.262  37.885  0.00  0.00    -0.033 C 
ATOM     23  C   UNL     1      40.511  77.520  38.140  0.00  0.00    -0.032 C 
ATOM     24  C   UNL     1      41.044  77.890  39.482  0.00  0.00    +0.039 C 
ATOM     25  C   UNL     1      42.161  78.847  39.475  0.00  0.00    +0.026 C 
ATOM     26  C   UNL     1      43.580  78.312  39.439  0.00  0.00    +0.146 C 
ATOM     27  C   UNL     1      43.805  77.441  40.614  0.00  0.00    +0.070 A 
ATOM     28  C   UNL     1      43.514  76.135  40.936  0.00  0.00    +0.010 A 
ATOM     29  C   UNL     1      42.809  75.079  40.170  0.00  0.00    +0.101 C 
ATOM     30  N   UNL     1      41.458  75.473  39.859  0.00  0.00    -0.265 NA
ATOM     31  C   UNL     1      41.072  76.735  40.417  0.00  0.00    +0.077 C 
ATOM     32  C   UNL     1      40.998  75.199  38.559  0.00  0.00    +0.095 C 
ATOM     33  C   UNL     1      43.990  75.909  42.200  0.00  0.00    +0.016 A 
ATOM     34  C   UNL     1      43.962  74.781  42.986  0.00  0.00    +0.001 A 
ATOM     35  C   UNL     1      44.517  74.785  44.260  0.00  0.00    +0.000 A 
ATOM     36  C   UNL     1      45.101  75.952  44.718  0.00  0.00    +0.002 A 
ATOM     37  C   UNL     1      45.123  77.079  43.914  0.00  0.00    +0.019 A 
ATOM     38  C   UNL     1      44.573  77.080  42.652  0.00  0.00    +0.081 A 
ATOM     39  N   UNL     1      44.436  77.984  41.655  0.00  0.00    -0.249 NA
BRANCH  22  41
ATOM     40  C   UNL     1      38.949  74.384  37.048  0.00  0.00    +0.005 C 
ATOM     41  C   UNL     1      39.178  75.868  36.915  0.00  0.00    +0.023 C 
ENDBRANCH  22  41
BRANCH  26  42
ATOM     42  C   UNL     1      43.833  77.635  38.170  0.00  0.00    +0.325 C 
ATOM     43  O   UNL     1      44.148  76.436  38.132  0.00  0.00    -0.249 OA
BRANCH  42  44
ATOM     44  O   UNL     1      43.735  78.292  36.973  0.00  0.00    -0.444 OA
ATOM     45  C   UNL     1      43.610  77.657  35.721  0.00  0.00    +0.256 C 
ENDBRANCH  42  44
ENDBRANCH  26  42
ENDBRANCH   1  26
BRANCH  17  46
ATOM     46  C   UNL     1      48.669  83.871  43.303  0.00  0.00    +0.350 C 
ATOM     47  O   UNL     1      49.709  84.407  43.758  0.00  0.00    -0.247 OA
BRANCH  46  48
ATOM     48  O   UNL     1      47.542  84.007  44.062  0.00  0.00    -0.443 OA
ATOM     49  C   UNL     1      46.695  85.146  43.949  0.00  0.00    +0.256 C 
ENDBRANCH  46  48
ENDBRANCH  17  46
BRANCH  12  50
ATOM     50  C   UNL     1      50.046  80.645  43.757  0.00  0.00    +0.009 C 
ATOM     51  C   UNL     1      48.848  80.861  44.642  0.00  0.00    +0.001 C 
ENDBRANCH  12  50
BRANCH   2  52
ATOM     52  O   UNL     1      43.776  80.387  37.477  0.00  0.00    -0.472 OA
ATOM     53  C   UNL     1      43.191  81.560  36.955  0.00  0.00    +0.252 C 
ENDBRANCH   2  52
BRANCH  16  54
ATOM     54  O   UNL     1      51.024  82.913  42.228  0.00  0.00    -0.449 OA
BRANCH  54  55
ATOM     55  C   UNL     1      52.141  82.256  42.741  0.00  0.00    +0.318 C 
ATOM     56  O   UNL     1      52.662  81.305  42.104  0.00  0.00    -0.250 OA
ATOM     57  C   UNL     1      52.764  82.631  44.036  0.00  0.00    +0.121 C 
ENDBRANCH  54  55
ENDBRANCH  16  54
TORSDOF 10
