REMARK  Name = Viomycin_sulfate
REMARK  10 active torsions:
REMARK  status: ('A' for Active; 'I' for Inactive)
REMARK    1  A    between atoms: C_2  and  C_9
REMARK    2  A    between atoms: C_14  and  N_39
REMARK    3  A    between atoms: C_18  and  C_37
REMARK    4  A    between atoms: C_22  and  C_35
REMARK    5  A    between atoms: C_27  and  N_28
REMARK    6  A    between atoms: C_40  and  C_42
REMARK    7  A    between atoms: C_42  and  C_43
REMARK    8  A    between atoms: C_43  and  C_44
REMARK    9  A    between atoms: C_44  and  C_45
REMARK   10  A    between atoms: C_45  and  C_46
REMARK                            x       y       z     vdW  Elec       q    Type
REMARK                         _______ _______ _______ _____ _____    ______ ____
ROOT
ATOM      1  C   UNK A   2      45.731  78.829  39.476  0.00  0.00    +0.195 C 
ATOM      2  C   UNK A   1      44.274  78.985  39.274  0.00  0.00    +0.263 C 
ATOM      3  O   UNK A   1      43.927  79.471  38.128  0.00  0.00    -0.271 OA
ATOM      4  N   UNK A   1      43.229  78.686  40.136  0.00  0.00    -0.202 NA
ATOM      5  C   UNK A   1      42.882  77.424  40.755  0.00  0.00    +0.146 C 
ATOM      6  C   UNK A   1      42.532  76.354  39.810  0.00  0.00    +0.194 C 
ATOM      7  C   UNK A   1      42.966  75.032  40.285  0.00  0.00    +0.263 C 
ATOM      8  O   UNK A   1      42.347  74.048  39.719  0.00  0.00    -0.271 OA
ATOM      9  N   UNK A   1      43.927  74.682  41.233  0.00  0.00    -0.194 NA
ATOM     10  C   UNK A   1      43.965  74.953  42.654  0.00  0.00    +0.205 C 
ATOM     11  C   UNK A   1      45.343  75.321  43.095  0.00  0.00    +0.264 C 
ATOM     12  O   UNK A   1      46.261  74.489  42.850  0.00  0.00    -0.271 OA
ATOM     13  N   UNK A   2      45.698  76.510  43.756  0.00  0.00    -0.193 NA
ATOM     14  C   UNK A   2      44.793  77.554  44.166  0.00  0.00    +0.206 C 
ATOM     15  C   UNK A   2      45.265  78.923  43.850  0.00  0.00    +0.268 C 
ATOM     16  O   UNK A   2      44.464  79.802  44.377  0.00  0.00    -0.271 OA
ATOM     17  N   UNK A   2      46.375  79.325  43.115  0.00  0.00    -0.172 NA
ATOM     18  C   UNK A   2      47.416  78.605  42.480  0.00  0.00    +0.145 C 
ATOM     19  C   UNK A   2      48.670  78.655  42.856  0.00  0.00    +0.112 C 
ATOM     20  C   UNK A   2      47.117  77.683  41.339  0.00  0.00    +0.282 C 
ATOM     21  O   UNK A   2      47.891  76.631  41.341  0.00  0.00    -0.267 OA
ATOM     22  N   UNK A   2      46.166  77.798  40.327  0.00  0.00    -0.191 NA
ENDROOT
BRANCH   1  24
ATOM     23  C   UNK A   2      46.242  80.974  38.280  0.00  0.00    +0.082 C 
ATOM     24  C   UNK A   2      46.335  80.178  39.601  0.00  0.00    +0.139 C 
ATOM     25  N   UNK A   2      45.502  80.933  40.529  0.00  0.00    -0.239 NA
ATOM     26  C   UNK A   2      45.688  82.202  40.615  0.00  0.00    +0.239 C 
ATOM     27  N   UNK A   2      46.681  82.797  39.814  0.00  0.00    -0.175 NA
ATOM     28  C   UNK A   2      47.130  82.201  38.551  0.00  0.00    +0.248 C 
ATOM     29  O   UNK A   2      47.035  83.130  37.545  0.00  0.00    -0.199 OA
ATOM     30  N   UNK A   2      44.926  83.015  41.489  0.00  0.00    -0.089 NA
ENDBRANCH   1  24
BRANCH  19  31
ATOM     31  N   UNK A   2      49.679  79.600  42.853  0.00  0.00    -0.157 NA
ATOM     32  C   UNK A   2      49.618  80.928  43.288  0.00  0.00    +0.363 C 
ATOM     33  O   UNK A   2      48.621  81.530  43.667  0.00  0.00    -0.247 OA
ATOM     34  N   UNK A   2      50.856  81.707  43.306  0.00  0.00    -0.068 NA
ENDBRANCH  19  31
BRANCH   6  35
ATOM     35  N   UNK A   1      41.146  76.315  39.410  0.00  0.00    -0.196 NA
ATOM     36  C   UNK A   0      40.664  76.511  38.112  0.00  0.00    +0.243 C 
ATOM     37  O   UNK A   0      41.548  76.742  37.216  0.00  0.00    -0.273 OA
BRANCH  36  38
ATOM     38  C   UNK A   0      39.224  76.455  37.786  0.00  0.00    +0.106 C 
BRANCH  38  39
ATOM     39  C   UNK A   0      38.983  76.688  36.300  0.00  0.00    +0.101 C 
ATOM     40  N   UNK A   0      39.557  77.944  35.921  0.00  0.00    -0.132 NA
BRANCH  39  41
ATOM     41  C   UNK A   0      37.505  76.619  36.042  0.00  0.00    +0.021 C 
BRANCH  41  42
ATOM     42  C   UNK A   0      37.142  76.759  34.603  0.00  0.00    +0.022 C 
BRANCH  42  43
ATOM     43  C   UNK A   0      35.651  76.916  34.387  0.00  0.00    +0.109 C 
ATOM     44  N   UNK A   0      35.005  75.628  34.204  0.00  0.00    -0.131 NA
ENDBRANCH  42  43
ENDBRANCH  41  42
ENDBRANCH  39  41
ENDBRANCH  38  39
ENDBRANCH  36  38
ENDBRANCH   6  35
BRANCH  14  45
ATOM     45  C   UNK A   2      44.526  77.451  45.685  0.00  0.00    +0.213 C 
ATOM     46  O   UNK A   2      45.195  76.373  46.229  0.00  0.00    -0.218 OA
ENDBRANCH  14  45
BRANCH  10  47
ATOM     47  C   UNK A   1      43.649  73.579  43.305  0.00  0.00    +0.213 C 
ATOM     48  O   UNK A   1      42.472  73.066  42.810  0.00  0.00    -0.218 OA
ENDBRANCH  10  47
TORSDOF 10
REMARK  Name = Viomycin_sulfate
REMARK  10 active torsions:
REMARK  status: ('A' for Active; 'I' for Inactive)
REMARK    1  A    between atoms: C_2  and  C_9
REMARK    2  A    between atoms: C_14  and  N_39
REMARK    3  A    between atoms: C_18  and  C_37
REMARK    4  A    between atoms: C_22  and  C_35
REMARK    5  A    between atoms: C_27  and  N_28
REMARK    6  A    between atoms: C_40  and  C_42
REMARK    7  A    between atoms: C_42  and  C_43
REMARK    8  A    between atoms: C_43  and  C_44
REMARK    9  A    between atoms: C_44  and  C_45
REMARK   10  A    between atoms: C_45  and  C_46
REMARK                            x       y       z     vdW  Elec       q    Type
REMARK                         _______ _______ _______ _____ _____    ______ ____
ROOT
ATOM      1  O   UNL     1      42.742  77.667  39.131  0.00  0.00    -0.020 OA
ATOM      2  S   UNL     1      43.798  77.829  40.438  0.00  0.00    +0.267 S 
ATOM      3  O   UNL     1      42.971  78.050  41.669  0.00  0.00    -0.113 OA
ATOM      4  O   UNL     1      44.679  76.625  40.542  0.00  0.00    -0.113 OA
ATOM      5  O   UNL     1      44.694  79.229  40.172  0.00  0.00    -0.020 OA
ENDROOT
TORSDOF 0
