REMARK  Name = Virginiamycin
REMARK  7 active torsions:
REMARK  status: ('A' for Active; 'I' for Inactive)
REMARK    1  A    between atoms: C_2  and  C_3
REMARK    2  A    between atoms: C_14  and  C_53
REMARK    3  A    between atoms: C_27  and  C_47
REMARK    4  A    between atoms: C_32  and  N_36
REMARK    5  A    between atoms: C_37  and  C_39
REMARK    6  A    between atoms: C_53  and  C_54
REMARK    7  A    between atoms: C_93  and  C_94
REMARK                            x       y       z     vdW  Elec       q    Type
REMARK                         _______ _______ _______ _____ _____    ______ ____
ROOT
ATOM      1  C   UNL     1      43.854  79.789  38.945  0.00  0.00    +0.171 C 
ATOM      2  C   UNL     1      44.655  80.968  39.362  0.00  0.00    +0.246 C 
ATOM      3  O   UNL     1      44.946  81.821  38.420  0.00  0.00    -0.273 OA
ATOM      4  N   UNL     1      45.151  81.325  40.612  0.00  0.00    -0.272 N 
ATOM      5  C   UNL     1      44.769  82.485  41.480  0.00  0.00    +0.094 C 
ATOM      6  C   UNL     1      46.091  83.131  41.723  0.00  0.00    +0.024 C 
ATOM      7  C   UNL     1      47.023  81.973  41.813  0.00  0.00    +0.031 C 
ATOM      8  C   UNL     1      46.186  80.715  41.443  0.00  0.00    +0.152 C 
ATOM      9  C   UNL     1      47.123  79.837  40.727  0.00  0.00    +0.244 C 
ATOM     10  O   UNL     1      47.259  80.183  39.486  0.00  0.00    -0.273 OA
ATOM     11  N   UNL     1      47.856  78.737  41.150  0.00  0.00    -0.270 N 
ATOM     12  C   UNL     1      47.963  78.165  42.499  0.00  0.00    +0.156 C 
ATOM     13  C   UNL     1      48.760  76.909  42.488  0.00  0.00    +0.244 C 
ATOM     14  O   UNL     1      49.934  77.133  41.938  0.00  0.00    -0.273 OA
ATOM     15  N   UNL     1      48.514  75.624  42.922  0.00  0.00    -0.271 N 
ATOM     16  C   UNL     1      48.973  74.586  41.947  0.00  0.00    +0.102 C 
ATOM     17  C   UNL     1      49.678  73.525  42.759  0.00  0.00    +0.086 C 
ATOM     18  C   UNL     1      50.057  73.919  44.114  0.00  0.00    +0.155 C 
ATOM     19  O   UNL     1      51.172  73.671  44.526  0.00  0.00    -0.296 OA
ATOM     20  C   UNL     1      49.132  74.634  45.058  0.00  0.00    +0.094 C 
ATOM     21  C   UNL     1      47.965  75.037  44.091  0.00  0.00    +0.161 C 
ATOM     22  C   UNL     1      46.856  75.622  44.803  0.00  0.00    +0.261 C 
ATOM     23  O   UNL     1      47.025  76.779  45.278  0.00  0.00    -0.272 OA
ATOM     24  N   UNL     1      45.574  75.043  45.040  0.00  0.00    -0.190 NA
ATOM     25  C   UNL     1      44.744  74.461  43.992  0.00  0.00    +0.216 C 
ATOM     26  C   UNL     1      44.205  75.486  43.067  0.00  0.00    +0.341 C 
ATOM     27  O   UNL     1      44.649  76.648  43.409  0.00  0.00    -0.248 OA
ATOM     28  O   UNL     1      43.396  75.264  42.053  0.00  0.00    -0.449 OA
ATOM     29  C   UNL     1      43.230  75.277  40.715  0.00  0.00    +0.198 C 
ATOM     30  C   UNL     1      42.905  76.690  40.122  0.00  0.00    +0.213 C 
ATOM     31  C   UNL     1      44.156  77.394  39.840  0.00  0.00    +0.265 C 
ATOM     32  O   UNL     1      45.191  76.843  40.414  0.00  0.00    -0.271 OA
ATOM     33  N   UNL     1      44.450  78.520  39.089  0.00  0.00    -0.196 NA
ATOM     34  C   UNL     1      42.052  74.358  40.349  0.00  0.00    +0.050 C 
ATOM     35  C   UNL     1      48.647  78.014  40.115  0.00  0.00    +0.115 C 
ENDROOT
BRANCH  25  36
ATOM     36  C   UNL     1      45.264  73.231  43.444  0.00  0.00    +0.008 A 
ATOM     37  C   UNL     1      44.651  72.040  43.224  0.00  0.00    -0.002 A 
ATOM     38  C   UNL     1      45.289  70.938  42.713  0.00  0.00    -0.000 A 
ATOM     39  C   UNL     1      46.630  70.981  42.385  0.00  0.00    -0.000 A 
ATOM     40  C   UNL     1      47.276  72.160  42.592  0.00  0.00    -0.000 A 
ATOM     41  C   UNL     1      46.634  73.257  43.102  0.00  0.00    -0.002 A 
ENDBRANCH  25  36
BRANCH  30  42
ATOM     42  N   UNL     1      41.992  76.494  39.021  0.00  0.00    -0.189 NA
ATOM     43  C   UNL     1      41.414  77.556  38.296  0.00  0.00    +0.286 C 
ATOM     44  O   UNL     1      41.891  78.713  38.606  0.00  0.00    -0.267 OA
BRANCH  43  45
ATOM     45  C   UNL     1      40.389  77.495  37.286  0.00  0.00    +0.175 A 
ATOM     46  C   UNL     1      39.450  78.467  37.078  0.00  0.00    +0.218 A 
ATOM     47  C   UNL     1      38.489  78.331  36.061  0.00  0.00    +0.045 A 
ATOM     48  C   UNL     1      38.440  77.248  35.244  0.00  0.00    +0.024 A 
ATOM     49  C   UNL     1      39.419  76.266  35.487  0.00  0.00    +0.099 A 
ATOM     50  N   UNL     1      40.304  76.423  36.445  0.00  0.00    -0.236 NA
ATOM     51  O   UNL     1      39.426  79.604  37.864  0.00  0.00    -0.285 OA
ENDBRANCH  43  45
ENDBRANCH  30  42
BRANCH   1  53
ATOM     52  C   UNL     1      42.251  80.642  40.716  0.00  0.00    +0.002 C 
ATOM     53  C   UNL     1      42.419  79.931  39.423  0.00  0.00    +0.031 C 
ENDBRANCH   1  53
BRANCH  12  54
ATOM     54  C   UNL     1      48.740  79.092  43.437  0.00  0.00    +0.056 C 
BRANCH  54  55
ATOM     55  C   UNL     1      49.778  79.896  42.811  0.00  0.00    -0.020 A 
ATOM     56  C   UNL     1      51.045  80.014  43.321  0.00  0.00    -0.004 A 
ATOM     57  C   UNL     1      52.054  80.745  42.712  0.00  0.00    -0.000 A 
ATOM     58  C   UNL     1      51.816  81.399  41.537  0.00  0.00    -0.000 A 
ATOM     59  C   UNL     1      50.574  81.312  40.989  0.00  0.00    -0.000 A 
ATOM     60  C   UNL     1      49.578  80.586  41.599  0.00  0.00    -0.004 A 
ENDBRANCH  54  55
ENDBRANCH  12  54
TORSDOF 6
REMARK  Name = Virginiamycin
REMARK  7 active torsions:
REMARK  status: ('A' for Active; 'I' for Inactive)
REMARK    1  A    between atoms: C_2  and  C_3
REMARK    2  A    between atoms: C_14  and  C_53
REMARK    3  A    between atoms: C_27  and  C_47
REMARK    4  A    between atoms: C_32  and  N_36
REMARK    5  A    between atoms: C_37  and  C_39
REMARK    6  A    between atoms: C_53  and  C_54
REMARK    7  A    between atoms: C_93  and  C_94
REMARK                            x       y       z     vdW  Elec       q    Type
REMARK                         _______ _______ _______ _____ _____    ______ ____
ROOT
ATOM      1  C   UNL     1      47.972  75.699  41.274  0.00  0.00    +0.008 C 
ATOM      2  C   UNL     1      47.215  76.717  42.111  0.00  0.00    +0.062 C 
ATOM      3  C   UNL     1      46.659  76.165  43.339  0.00  0.00    -0.018 C 
ATOM      4  C   UNL     1      46.514  74.930  43.720  0.00  0.00    +0.055 C 
ATOM      5  C   UNL     1      46.843  73.697  43.077  0.00  0.00    +0.265 C 
ATOM      6  O   UNL     1      47.676  72.917  43.670  0.00  0.00    -0.268 OA
ATOM      7  N   UNL     1      46.362  73.199  41.840  0.00  0.00    -0.197 NA
ATOM      8  C   UNL     1      45.017  73.386  41.329  0.00  0.00    +0.142 C 
ATOM      9  C   UNL     1      44.164  72.222  41.692  0.00  0.00    -0.003 C 
ATOM     10  C   UNL     1      42.898  72.269  42.050  0.00  0.00    -0.007 C 
ATOM     11  C   UNL     1      42.014  73.404  42.186  0.00  0.00    -0.024 C 
ATOM     12  C   UNL     1      41.580  74.207  41.234  0.00  0.00    +0.002 C 
ATOM     13  C   UNL     1      41.870  74.167  39.788  0.00  0.00    +0.181 C 
ATOM     14  C   UNL     1      42.530  75.389  39.239  0.00  0.00    +0.102 C 
ATOM     15  C   UNL     1      42.305  76.617  40.006  0.00  0.00    +0.163 C 
ATOM     16  O   UNL     1      41.177  77.078  40.031  0.00  0.00    -0.295 OA
ATOM     17  C   UNL     1      43.445  77.250  40.718  0.00  0.00    +0.150 C 
ATOM     18  C   UNL     1      44.313  78.037  39.754  0.00  0.00    +0.213 A 
ATOM     19  N   UNL     1      44.772  79.224  40.125  0.00  0.00    -0.207 NA
ATOM     20  C   UNL     1      45.508  79.744  39.135  0.00  0.00    +0.175 A 
ATOM     21  C   UNL     1      45.470  78.787  38.127  0.00  0.00    +0.205 A 
ATOM     22  O   UNL     1      44.743  77.791  38.551  0.00  0.00    -0.435 OA
ATOM     23  C   UNL     1      46.143  81.066  39.196  0.00  0.00    +0.274 C 
ATOM     24  O   UNL     1      45.882  81.810  38.150  0.00  0.00    -0.268 OA
ATOM     25  N   UNL     1      46.967  81.580  40.222  0.00  0.00    -0.248 N 
ATOM     26  C   UNL     1      46.690  82.785  41.035  0.00  0.00    +0.103 C 
ATOM     27  C   UNL     1      48.094  83.352  41.110  0.00  0.00    +0.049 C 
ATOM     28  C   UNL     1      48.947  82.115  41.212  0.00  0.00    -0.003 C 
ATOM     29  C   UNL     1      48.228  81.104  40.675  0.00  0.00    +0.126 C 
ATOM     30  C   UNL     1      48.718  79.718  40.582  0.00  0.00    +0.355 C 
ATOM     31  O   UNL     1      49.850  79.669  39.922  0.00  0.00    -0.243 OA
ATOM     32  O   UNL     1      48.123  78.603  41.086  0.00  0.00    -0.448 OA
ATOM     33  C   UNL     1      48.088  77.969  42.313  0.00  0.00    +0.173 C 
ATOM     34  O   UNL     1      42.526  73.028  39.353  0.00  0.00    -0.218 OA
ATOM     35  C   UNL     1      41.480  73.699  43.587  0.00  0.00    +0.031 C 
ENDROOT
BRANCH  33  36
ATOM     36  C   UNL     1      47.676  78.763  43.491  0.00  0.00    +0.041 C 
ATOM     37  C   UNL     1      48.080  80.185  43.546  0.00  0.00    +0.004 C 
ATOM     38  C   UNL     1      48.096  78.005  44.763  0.00  0.00    +0.004 C 
ENDBRANCH  33  36
TORSDOF 1
