REMARK  Name = Vismodegib
REMARK  4 active torsions:
REMARK  status: ('A' for Active; 'I' for Inactive)
REMARK    1  A    between atoms: S_2  and  C_5
REMARK    2  A    between atoms: C_8  and  C_11
REMARK    3  A    between atoms: N_13  and  C_14
REMARK    4  A    between atoms: C_16  and  C_21
REMARK                            x       y       z     vdW  Elec       q    Type
REMARK                         _______ _______ _______ _____ _____    ______ ____
ROOT
ATOM      1  C   UNL     1      46.892  80.964  41.145  0.00  0.00    +0.270 C 
ATOM      2  O   UNL     1      45.835  81.561  40.957  0.00  0.00    -0.268 OA
ATOM      3  N   UNL     1      46.986  79.595  40.920  0.00  0.00    -0.175 NA
ENDROOT
BRANCH   1   7
ATOM      4  C   UNL     1      50.272  83.196  42.428  0.00  0.00    +0.107 A 
ATOM      5  C   UNL     1      48.994  83.660  42.670  0.00  0.00    +0.030 A 
ATOM      6  C   UNL     1      47.857  82.973  42.274  0.00  0.00    +0.063 A 
ATOM      7  C   UNL     1      48.027  81.785  41.616  0.00  0.00    +0.066 A 
ATOM      8  C   UNL     1      49.303  81.300  41.362  0.00  0.00    +0.007 A 
ATOM      9  C   UNL     1      50.422  81.997  41.764  0.00  0.00    +0.019 A 
ATOM     10 CL   UNL     1      46.246  83.575  42.589  0.00  0.00    -0.082 Cl
BRANCH   4  12
ATOM     11  C   UNL     1      51.409  84.635  44.607  0.00  0.00    +0.182 C 
ATOM     12  S   UNL     1      51.697  84.103  42.950  0.00  0.00    +0.010 S 
ATOM     13  O   UNL     1      51.921  85.298  42.068  0.00  0.00    -0.169 OA
ATOM     14  O   UNL     1      52.856  83.150  42.894  0.00  0.00    -0.169 OA
ENDBRANCH   4  12
ENDBRANCH   1   7
BRANCH   3  15
ATOM     15  C   UNL     1      45.955  78.621  41.037  0.00  0.00    +0.074 A 
ATOM     16  C   UNL     1      44.919  78.661  40.120  0.00  0.00    +0.019 A 
ATOM     17  C   UNL     1      43.844  77.774  40.108  0.00  0.00    +0.030 A 
ATOM     18  C   UNL     1      43.862  76.821  41.092  0.00  0.00    +0.059 A 
ATOM     19  C   UNL     1      44.903  76.767  42.026  0.00  0.00    +0.013 A 
ATOM     20  C   UNL     1      45.957  77.657  42.016  0.00  0.00    +0.017 A 
ATOM     21 CL   UNL     1      42.564  75.661  41.249  0.00  0.00    -0.082 Cl
BRANCH  17  22
ATOM     22  C   UNL     1      42.808  77.938  39.102  0.00  0.00    +0.082 A 
ATOM     23  C   UNL     1      42.068  79.043  38.840  0.00  0.00    +0.019 A 
ATOM     24  C   UNL     1      41.064  79.059  37.863  0.00  0.00    +0.003 A 
ATOM     25  C   UNL     1      40.819  77.924  37.148  0.00  0.00    +0.021 A 
ATOM     26  C   UNL     1      41.566  76.800  37.410  0.00  0.00    +0.099 A 
ATOM     27  N   UNL     1      42.505  76.843  38.348  0.00  0.00    -0.244 NA
ENDBRANCH  17  22
ENDBRANCH   3  15
TORSDOF 4
