REMARK  Name = Vitamin_E
REMARK  12 active torsions:
REMARK  status: ('A' for Active; 'I' for Inactive)
REMARK    1  A    between atoms: C_8  and  C_11
REMARK    2  A    between atoms: C_11  and  C_12
REMARK    3  A    between atoms: C_12  and  C_13
REMARK    4  A    between atoms: C_13  and  C_14
REMARK    5  A    between atoms: C_14  and  C_16
REMARK    6  A    between atoms: C_16  and  C_17
REMARK    7  A    between atoms: C_17  and  C_18
REMARK    8  A    between atoms: C_18  and  C_19
REMARK    9  A    between atoms: C_19  and  C_21
REMARK   10  A    between atoms: C_21  and  C_22
REMARK   11  A    between atoms: C_22  and  C_23
REMARK   12  A    between atoms: C_23  and  C_24
REMARK                            x       y       z     vdW  Elec       q    Type
REMARK                         _______ _______ _______ _____ _____    ______ ____
ROOT
ATOM      1  C   UNL     1      46.468  80.145  41.718  0.00  0.00    +0.040 C 
ENDROOT
BRANCH   1   9
ATOM      2  C   UNL     1      41.244  75.123  40.500  0.00  0.00    +0.034 C 
ATOM      3  C   UNL     1      42.011  76.328  40.051  0.00  0.00    +0.016 A 
ATOM      4  C   UNL     1      42.937  76.945  40.867  0.00  0.00    +0.011 A 
ATOM      5  C   UNL     1      43.655  78.055  40.478  0.00  0.00    +0.130 A 
ATOM      6  C   UNL     1      43.458  78.591  39.223  0.00  0.00    +0.011 A 
ATOM      7  C   UNL     1      44.179  79.776  38.720  0.00  0.00    +0.033 C 
ATOM      8  C   UNL     1      45.378  80.169  39.509  0.00  0.00    +0.045 C 
ATOM      9  C   UNL     1      45.730  79.281  40.651  0.00  0.00    +0.133 C 
ATOM     10  O   UNL     1      44.590  78.687  41.287  0.00  0.00    -0.483 OA
ATOM     11  C   UNL     1      46.639  78.145  40.246  0.00  0.00    +0.044 C 
ATOM     12  C   UNL     1      42.538  77.989  38.394  0.00  0.00    +0.016 A 
ATOM     13  C   UNL     1      41.812  76.868  38.788  0.00  0.00    +0.187 A 
ATOM     14  O   UNL     1      40.886  76.273  37.934  0.00  0.00    -0.287 OA
ATOM     15  C   UNL     1      42.273  78.513  37.026  0.00  0.00    +0.034 C 
ATOM     16  C   UNL     1      43.151  76.370  42.219  0.00  0.00    +0.034 C 
ENDBRANCH   1   9
BRANCH   1  17
ATOM     17  C   UNL     1      47.383  81.015  40.965  0.00  0.00    +0.004 C 
BRANCH  17  18
ATOM     18  C   UNL     1      47.461  82.450  41.160  0.00  0.00    +0.000 C 
BRANCH  18  19
ATOM     19  C   UNL     1      48.309  83.020  42.279  0.00  0.00    +0.000 C 
ATOM     20  C   UNL     1      47.861  84.422  42.492  0.00  0.00    +0.000 C 
BRANCH  19  21
ATOM     21  C   UNL     1      49.746  82.867  41.916  0.00  0.00    +0.000 C 
BRANCH  21  22
ATOM     22  C   UNL     1      50.709  83.772  42.561  0.00  0.00    +0.000 C 
BRANCH  22  23
ATOM     23  C   UNL     1      50.883  83.896  44.002  0.00  0.00    +0.000 C 
BRANCH  23  24
ATOM     24  C   UNL     1      51.772  82.940  44.719  0.00  0.00    +0.000 C 
ATOM     25  C   UNL     1      53.119  82.947  44.022  0.00  0.00    +0.000 C 
BRANCH  24  26
ATOM     26  C   UNL     1      51.971  83.256  46.175  0.00  0.00    +0.000 C 
BRANCH  26  27
ATOM     27  C   UNL     1      52.754  82.192  46.906  0.00  0.00    +0.000 C 
BRANCH  27  28
ATOM     28  C   UNL     1      52.944  82.474  48.370  0.00  0.00    +0.000 C 
BRANCH  28  29
ATOM     29  C   UNL     1      54.379  82.901  48.603  0.00  0.00    +0.000 C 
ATOM     30  C   UNL     1      55.240  81.745  49.048  0.00  0.00    +0.000 C 
ATOM     31  C   UNL     1      54.492  83.998  49.615  0.00  0.00    +0.000 C 
ENDBRANCH  28  29
ENDBRANCH  27  28
ENDBRANCH  26  27
ENDBRANCH  24  26
ENDBRANCH  23  24
ENDBRANCH  22  23
ENDBRANCH  21  22
ENDBRANCH  19  21
ENDBRANCH  18  19
ENDBRANCH  17  18
ENDBRANCH   1  17
TORSDOF 12
