REMARK  Name = Vitamin_B3
REMARK  1 active torsions:
REMARK  status: ('A' for Active; 'I' for Inactive)
REMARK    1  A    between atoms: C_3  and  C_7
REMARK                            x       y       z     vdW  Elec       q    Type
REMARK                         _______ _______ _______ _____ _____    ______ ____
ROOT
ATOM      1  C   UNL     1      46.823  82.191  40.047  0.00  0.00    +0.021 A 
ATOM      2  C   UNL     1      46.322  80.969  40.506  0.00  0.00    +0.010 A 
ATOM      3  C   UNL     1      45.319  80.339  39.804  0.00  0.00    +0.099 A 
ATOM      4  C   UNL     1      44.857  80.957  38.671  0.00  0.00    +0.105 A 
ATOM      5  N   UNL     1      45.352  82.142  38.239  0.00  0.00    -0.242 NA
ATOM      6  C   UNL     1      46.333  82.777  38.908  0.00  0.00    +0.099 A 
ENDROOT
BRANCH   3   7
ATOM      7  C   UNL     1      44.800  79.072  40.280  0.00  0.00    +0.389 C 
ATOM      8  O   UNL     1      45.432  78.452  41.163  0.00  0.00    -0.240 OA
ATOM      9  O   UNL     1      43.632  78.494  39.815  0.00  0.00    -0.240 OA
ENDBRANCH   3   7
TORSDOF 1
