REMARK  Name = Vitamin_B6
REMARK  2 active torsions:
REMARK  status: ('A' for Active; 'I' for Inactive)
REMARK    1  A    between atoms: C_5  and  C_11
REMARK    2  A    between atoms: C_6  and  C_9
REMARK                            x       y       z     vdW  Elec       q    Type
REMARK                         _______ _______ _______ _____ _____    ______ ____
ROOT
ATOM      1  C   UNL     1      47.294  83.104  38.907  0.00  0.00    +0.056 C 
ATOM      2  C   UNL     1      46.387  81.949  39.154  0.00  0.00    +0.098 A 
ATOM      3  N   UNL     1      45.421  81.674  38.251  0.00  0.00    -0.245 NA
ATOM      4  C   UNL     1      44.574  80.626  38.414  0.00  0.00    +0.097 A 
ATOM      5  C   UNL     1      44.700  79.830  39.518  0.00  0.00    +0.031 A 
ATOM      6  C   UNL     1      45.678  80.113  40.427  0.00  0.00    +0.051 A 
ATOM      7  C   UNL     1      46.558  81.180  40.283  0.00  0.00    +0.207 A 
ATOM      8  O   UNL     1      47.548  81.456  41.216  0.00  0.00    -0.286 OA
ENDROOT
BRANCH   6   9
ATOM      9  C   UNL     1      45.808  79.264  41.611  0.00  0.00    +0.212 C 
ATOM     10  O   UNL     1      47.013  78.555  41.453  0.00  0.00    -0.215 OA
ENDBRANCH   6   9
BRANCH   5  11
ATOM     11  C   UNL     1      43.802  78.647  39.709  0.00  0.00    +0.210 C 
ATOM     12  O   UNL     1      42.859  78.629  38.670  0.00  0.00    -0.215 OA
ENDBRANCH   5  11
TORSDOF 2
