REMARK  Name = Vitamin_B1
REMARK  4 active torsions:
REMARK  status: ('A' for Active; 'I' for Inactive)
REMARK    1  A    between atoms: C_3  and  C_16
REMARK    2  A    between atoms: N_6  and  C_7
REMARK    3  A    between atoms: C_7  and  C_8
REMARK    4  A    between atoms: C_16  and  C_17
REMARK                            x       y       z     vdW  Elec       q    Type
REMARK                         _______ _______ _______ _____ _____    ______ ____
ROOT
ATOM      1  C   UNL     1      48.955  83.942  41.830  0.00  0.00    +0.050 C 
ATOM      2  C   UNL     1      49.051  82.466  42.226  0.00  0.00    +0.040 A 
ATOM      3  C   UNL     1      50.308  81.942  42.462  0.00  0.00    +0.023 A 
ATOM      4  S   UNL     1      49.943  80.352  42.969  0.00  0.00    -0.071 S 
ATOM      5  C   UNL     1      48.261  80.427  42.858  0.00  0.00    +0.112 A 
ATOM      6  N   UNL     1      48.019  81.703  42.423  0.00  0.00    -0.320 N 
ENDROOT
BRANCH   6   7
ATOM      7  C   UNL     1      46.586  82.031  42.178  0.00  0.00    +0.137 C 
BRANCH   7   8
ATOM      8  C   UNL     1      46.068  81.495  40.923  0.00  0.00    +0.054 A 
ATOM      9  C   UNL     1      45.403  80.244  40.981  0.00  0.00    +0.101 A 
ATOM     10  N   UNL     1      44.950  79.711  39.848  0.00  0.00    -0.229 NA
ATOM     11  C   UNL     1      45.088  80.295  38.642  0.00  0.00    +0.141 A 
ATOM     12  N   UNL     1      45.717  81.477  38.597  0.00  0.00    -0.213 NA
ATOM     13  C   UNL     1      46.216  82.101  39.713  0.00  0.00    +0.170 A 
ATOM     14  N   UNL     1      46.831  83.378  39.528  0.00  0.00    -0.107 NA
ATOM     15  C   UNL     1      44.561  79.654  37.404  0.00  0.00    +0.074 C 
ENDBRANCH   7   8
ENDBRANCH   6   7
BRANCH   3  16
ATOM     16  C   UNL     1      51.663  82.581  42.301  0.00  0.00    +0.070 C 
BRANCH  16  17
ATOM     17  C   UNL     1      52.194  82.579  40.920  0.00  0.00    +0.187 C 
ATOM     18  O   UNL     1      51.463  83.226  39.962  0.00  0.00    -0.220 OA
ENDBRANCH  16  17
ENDBRANCH   3  16
TORSDOF 4
REMARK  Name = Vitamin_B1
REMARK  4 active torsions:
REMARK  status: ('A' for Active; 'I' for Inactive)
REMARK    1  A    between atoms: C_3  and  C_16
REMARK    2  A    between atoms: N_6  and  C_7
REMARK    3  A    between atoms: C_7  and  C_8
REMARK    4  A    between atoms: C_16  and  C_17
REMARK                            x       y       z     vdW  Elec       q    Type
REMARK                         _______ _______ _______ _____ _____    ______ ____
ROOT
ATOM      1 CL   UNL     1      48.063  81.896  40.832  0.00  0.00    +0.000 Cl
ENDROOT
TORSDOF 0
