REMARK  Name = Voclosporin
REMARK  16 active torsions:
REMARK  status: ('A' for Active; 'I' for Inactive)
REMARK    1  A    between atoms: C_2  and  C_3
REMARK    2  A    between atoms: C_11  and  C_81
REMARK    3  A    between atoms: C_15  and  C_78
REMARK    4  A    between atoms: C_19  and  C_73
REMARK    5  A    between atoms: C_31  and  C_66
REMARK    6  A    between atoms: C_35  and  C_61
REMARK    7  A    between atoms: C_39  and  C_57
REMARK    8  A    between atoms: C_43  and  C_47
REMARK    9  A    between atoms: C_47  and  C_48
REMARK   10  A    between atoms: C_48  and  C_50
REMARK   11  A    between atoms: C_50  and  C_51
REMARK   12  A    between atoms: C_52  and  C_53
REMARK   13  A    between atoms: C_61  and  C_62
REMARK   14  A    between atoms: C_66  and  C_67
REMARK   15  A    between atoms: C_73  and  C_74
REMARK   16  A    between atoms: C_81  and  C_82
REMARK                            x       y       z     vdW  Elec       q    Type
REMARK                         _______ _______ _______ _____ _____    ______ ____
ROOT
ATOM      1  C   UNL     1      44.972  80.925  38.690  0.00  0.00    +0.171 C 
ATOM      2  C   UNL     1      43.973  81.069  39.740  0.00  0.00    +0.246 C 
ATOM      3  O   UNL     1      43.699  82.135  40.355  0.00  0.00    -0.273 OA
ATOM      4  N   UNL     1      43.198  79.923  40.149  0.00  0.00    -0.268 N 
ATOM      5  C   UNL     1      42.812  78.887  39.189  0.00  0.00    +0.179 C 
ATOM      6  C   UNL     1      41.378  78.622  39.353  0.00  0.00    +0.246 C 
ATOM      7  O   UNL     1      40.620  79.615  39.630  0.00  0.00    -0.273 OA
ATOM      8  N   UNL     1      40.821  77.317  39.213  0.00  0.00    -0.270 N 
ATOM      9  C   UNL     1      41.331  76.416  38.236  0.00  0.00    +0.154 C 
ATOM     10  C   UNL     1      41.938  75.177  38.754  0.00  0.00    +0.260 C 
ATOM     11  O   UNL     1      43.137  75.358  39.232  0.00  0.00    -0.272 OA
ATOM     12  N   UNL     1      41.426  73.873  38.803  0.00  0.00    -0.196 NA
ATOM     13  C   UNL     1      40.321  73.347  39.559  0.00  0.00    +0.171 C 
ATOM     14  C   UNL     1      40.662  72.997  40.960  0.00  0.00    +0.246 C 
ATOM     15  O   UNL     1      40.108  73.772  41.838  0.00  0.00    -0.273 OA
ATOM     16  N   UNL     1      41.488  71.954  41.404  0.00  0.00    -0.270 N 
ATOM     17  C   UNL     1      42.448  71.170  40.682  0.00  0.00    +0.154 C 
ATOM     18  C   UNL     1      43.843  71.308  41.200  0.00  0.00    +0.260 C 
ATOM     19  O   UNL     1      44.700  70.648  40.495  0.00  0.00    -0.272 OA
ATOM     20  N   UNL     1      44.256  72.052  42.319  0.00  0.00    -0.196 NA
ATOM     21  C   UNL     1      44.054  73.447  42.605  0.00  0.00    +0.173 C 
ATOM     22  C   UNL     1      44.135  73.768  44.045  0.00  0.00    +0.262 C 
ATOM     23  O   UNL     1      42.997  73.887  44.634  0.00  0.00    -0.271 OA
ATOM     24  N   UNL     1      45.287  73.956  44.828  0.00  0.00    -0.196 NA
ATOM     25  C   UNL     1      46.406  73.059  44.986  0.00  0.00    +0.171 C 
ATOM     26  C   UNL     1      47.440  73.678  45.855  0.00  0.00    +0.246 C 
ATOM     27  O   UNL     1      47.059  74.576  46.647  0.00  0.00    -0.273 OA
ATOM     28  N   UNL     1      48.824  73.342  45.872  0.00  0.00    -0.270 N 
ATOM     29  C   UNL     1      49.657  73.190  44.704  0.00  0.00    +0.152 C 
ATOM     30  C   UNL     1      50.935  73.877  44.696  0.00  0.00    +0.244 C 
ATOM     31  O   UNL     1      51.888  73.215  45.276  0.00  0.00    -0.273 OA
ATOM     32  N   UNL     1      51.355  75.119  44.182  0.00  0.00    -0.270 N 
ATOM     33  C   UNL     1      50.744  76.423  44.267  0.00  0.00    +0.152 C 
ATOM     34  C   UNL     1      49.839  76.765  43.146  0.00  0.00    +0.244 C 
ATOM     35  O   UNL     1      48.849  75.937  43.027  0.00  0.00    -0.273 OA
ATOM     36  N   UNL     1      49.861  77.805  42.208  0.00  0.00    -0.270 N 
ATOM     37  C   UNL     1      49.862  79.254  42.474  0.00  0.00    +0.152 C 
ATOM     38  C   UNL     1      48.594  79.741  43.035  0.00  0.00    +0.244 C 
ATOM     39  O   UNL     1      48.659  79.938  44.330  0.00  0.00    -0.273 OA
ATOM     40  N   UNL     1      47.343  80.034  42.479  0.00  0.00    -0.268 N 
ATOM     41  C   UNL     1      46.956  81.026  41.500  0.00  0.00    +0.184 C 
ATOM     42  C   UNL     1      47.134  80.694  40.112  0.00  0.00    +0.262 C 
ATOM     43  O   UNL     1      48.144  79.965  39.767  0.00  0.00    -0.271 OA
ATOM     44  N   UNL     1      46.336  81.056  38.998  0.00  0.00    -0.196 NA
ATOM     45  C   UNL     1      46.246  79.175  43.063  0.00  0.00    +0.115 C 
ATOM     46  C   UNL     1      49.842  77.445  40.770  0.00  0.00    +0.115 C 
ATOM     47  C   UNL     1      52.638  75.067  43.400  0.00  0.00    +0.115 C 
ATOM     48  C   UNL     1      49.488  73.117  47.172  0.00  0.00    +0.115 C 
ATOM     49  C   UNL     1      45.980  71.737  45.661  0.00  0.00    +0.033 C 
ATOM     50  C   UNL     1      45.096  74.224  41.782  0.00  0.00    +0.033 C 
ATOM     51  C   UNL     1      41.352  71.592  42.829  0.00  0.00    +0.115 C 
ATOM     52  C   UNL     1      39.717  76.945  40.075  0.00  0.00    +0.115 C 
ATOM     53  C   UNL     1      42.790  79.796  41.534  0.00  0.00    +0.115 C 
ENDROOT
BRANCH  13  54
ATOM     54  C   UNL     1      39.651  72.148  38.885  0.00  0.00    +0.029 C 
ATOM     55  C   UNL     1      40.658  71.150  38.359  0.00  0.00    +0.002 C 
ATOM     56  C   UNL     1      38.831  72.591  37.696  0.00  0.00    +0.002 C 
ENDBRANCH  13  54
BRANCH  37  57
ATOM     57  C   UNL     1      51.071  79.657  43.294  0.00  0.00    +0.027 C 
ATOM     58  C   UNL     1      51.212  81.170  43.262  0.00  0.00    +0.002 C 
ATOM     59  C   UNL     1      50.797  79.359  44.774  0.00  0.00    +0.002 C 
ENDBRANCH  37  57
BRANCH  41  60
ATOM     60  C   UNL     1      47.116  82.446  41.951  0.00  0.00    +0.179 C 
ATOM     61  O   UNL     1      47.776  82.369  43.215  0.00  0.00    -0.221 OA
BRANCH  60  62
ATOM     62  C   UNL     1      47.993  83.332  41.147  0.00  0.00    +0.037 C 
ATOM     63  C   UNL     1      47.352  84.746  41.304  0.00  0.00    +0.003 C 
BRANCH  62  64
ATOM     64  C   UNL     1      49.365  83.541  41.768  0.00  0.00    +0.029 C 
BRANCH  64  65
ATOM     65  C   UNL     1      50.385  83.056  40.834  0.00  0.00    -0.026 C 
ATOM     66  C   UNL     1      51.660  83.393  40.854  0.00  0.00    -0.005 C 
BRANCH  66  67
ATOM     67  C   UNL     1      52.428  83.568  42.059  0.00  0.00    -0.000 C 
ATOM     68  C   UNL     1      53.107  84.673  42.298  0.00  0.00    -0.000 C 
ENDBRANCH  66  67
ENDBRANCH  64  65
ENDBRANCH  62  64
ENDBRANCH  60  62
ENDBRANCH  41  60
BRANCH   1  70
ATOM     69  C   UNL     1      44.351  83.339  38.275  0.00  0.00    +0.002 C 
ATOM     70  C   UNL     1      44.607  82.011  37.647  0.00  0.00    +0.031 C 
ENDBRANCH   1  70
BRANCH  33  71
ATOM     71  C   UNL     1      50.258  76.844  45.624  0.00  0.00    +0.029 C 
BRANCH  71  72
ATOM     72  C   UNL     1      51.308  77.084  46.654  0.00  0.00    +0.002 C 
ATOM     73  C   UNL     1      52.108  78.321  46.583  0.00  0.00    +0.000 C 
ATOM     74  C   UNL     1      52.177  75.840  46.861  0.00  0.00    +0.000 C 
ENDBRANCH  71  72
ENDBRANCH  33  71
BRANCH  29  75
ATOM     75  C   UNL     1      49.876  71.649  44.636  0.00  0.00    +0.029 C 
BRANCH  75  76
ATOM     76  C   UNL     1      49.245  71.060  43.423  0.00  0.00    +0.002 C 
ATOM     77  C   UNL     1      47.774  71.439  43.453  0.00  0.00    +0.000 C 
ATOM     78  C   UNL     1      49.802  71.628  42.135  0.00  0.00    +0.000 C 
ENDBRANCH  75  76
ENDBRANCH  29  75
BRANCH  17  79
ATOM     79  C   UNL     1      41.987  69.728  40.698  0.00  0.00    +0.029 C 
BRANCH  79  80
ATOM     80  C   UNL     1      40.702  69.460  41.392  0.00  0.00    +0.002 C 
ATOM     81  C   UNL     1      39.690  70.585  41.193  0.00  0.00    +0.000 C 
ATOM     82  C   UNL     1      41.015  69.457  42.902  0.00  0.00    +0.000 C 
ENDBRANCH  79  80
ENDBRANCH  17  79
BRANCH   9  83
ATOM     83  C   UNL     1      40.274  76.213  37.176  0.00  0.00    +0.029 C 
BRANCH  83  84
ATOM     84  C   UNL     1      39.187  77.260  37.205  0.00  0.00    +0.002 C 
ATOM     85  C   UNL     1      38.087  76.727  38.124  0.00  0.00    +0.000 C 
ATOM     86  C   UNL     1      39.702  78.562  37.826  0.00  0.00    +0.000 C 
ENDBRANCH  83  84
ENDBRANCH   9  83
TORSDOF 16
