REMARK  Name = Voglibose
REMARK  5 active torsions:
REMARK  status: ('A' for Active; 'I' for Inactive)
REMARK    1  A    between atoms: C_2  and  N_13
REMARK    2  A    between atoms: C_6  and  C_7
REMARK    3  A    between atoms: N_13  and  CA_14
REMARK    4  A    between atoms: CA_14  and  CB_15
REMARK    5  A    between atoms: CA_14  and  C_17
REMARK                            x       y       z     vdW  Elec       q    Type
REMARK                         _______ _______ _______ _____ _____    ______ ____
ROOT
ATOM      1  C   UNK A   0      47.485  80.068  40.923  0.00  0.00    +0.056 C 
ATOM      2  C   UNK A   0      47.682  81.554  40.866  0.00  0.00    +0.108 C 
ATOM      3  C   UNK A   0      47.385  82.146  39.511  0.00  0.00    +0.201 C 
ATOM      4  C   UNK A   0      46.265  81.498  38.775  0.00  0.00    +0.216 C 
ATOM      5  C   UNK A   0      45.383  80.809  39.795  0.00  0.00    +0.215 C 
ATOM      6  C   UNK A   0      46.205  79.606  40.279  0.00  0.00    +0.189 C 
ATOM      7  O   UNK A   0      46.459  78.842  39.141  0.00  0.00    -0.220 OA
ATOM      8  O   UNK A   0      44.194  80.378  39.262  0.00  0.00    -0.218 OA
ATOM      9  O   UNK A   0      45.536  82.455  38.063  0.00  0.00    -0.218 OA
ATOM     10  O   UNK A   0      47.098  83.505  39.643  0.00  0.00    -0.219 OA
ENDROOT
BRANCH   6  11
ATOM     11  C   UNK A   0      45.433  78.782  41.273  0.00  0.00    +0.215 C 
ATOM     12  O   UNK A   0      44.111  79.157  41.211  0.00  0.00    -0.218 OA
ENDBRANCH   6  11
BRANCH   2  13
ATOM     13  N   SER A   1      49.076  81.824  41.119  0.00  0.00    -0.213 NA
BRANCH  13  14
ATOM     14  CA  SER A   1      49.436  82.033  42.475  0.00  0.00    +0.139 C 
BRANCH  14  15
ATOM     15  CB  SER A   1      50.919  82.276  42.590  0.00  0.00    +0.202 C 
ATOM     16  OG  SER A   1      51.305  82.983  41.448  0.00  0.00    -0.219 OA
ENDBRANCH  14  15
BRANCH  14  17
ATOM     17  C   SER A   1      49.065  80.859  43.357  0.00  0.00    +0.202 C 
ATOM     18  O   SER A   1      49.479  81.105  44.662  0.00  0.00    -0.219 OA
ENDBRANCH  14  17
ENDBRANCH  13  14
ENDBRANCH   2  13
TORSDOF 5
