REMARK  Name = Vonoprazan
REMARK  7 active torsions:
REMARK  status: ('A' for Active; 'I' for Inactive)
REMARK    1  A    between atoms: N_2  and  C_3
REMARK    2  A    between atoms: C_3  and  C_4
REMARK    3  A    between atoms: N_6  and  S_16
REMARK    4  A    between atoms: C_7  and  C_9
REMARK    5  A    between atoms: S_16  and  C_19
REMARK    6  A    between atoms: C_25  and  C_30
REMARK    7  A    between atoms: C_26  and  C_27
REMARK                            x       y       z     vdW  Elec       q    Type
REMARK                         _______ _______ _______ _____ _____    ______ ____
ROOT
ATOM      1  C   UNL     1      42.898  78.707  38.345  0.00  0.00    +0.016 A 
ATOM      2  C   UNL     1      43.362  79.980  38.545  0.00  0.00    +0.097 A 
ATOM      3  N   UNL     1      44.078  80.032  39.718  0.00  0.00    -0.208 N 
ATOM      4  C   UNL     1      44.090  78.821  40.289  0.00  0.00    +0.084 A 
ATOM      5  C   UNL     1      43.347  77.994  39.420  0.00  0.00    +0.018 A 
ENDROOT
BRANCH   4   6
ATOM      6  C   UNL     1      44.726  78.344  41.497  0.00  0.00    +0.045 A 
ATOM      7  C   UNL     1      44.430  78.712  42.769  0.00  0.00    +0.004 A 
ATOM      8  C   UNL     1      45.100  78.230  43.885  0.00  0.00    +0.000 A 
ATOM      9  C   UNL     1      46.121  77.326  43.689  0.00  0.00    +0.002 A 
ATOM     10  C   UNL     1      46.447  76.930  42.408  0.00  0.00    +0.030 A 
ATOM     11  C   UNL     1      45.766  77.424  41.317  0.00  0.00    +0.142 A 
ATOM     12  F   UNL     1      46.117  77.009  40.074  0.00  0.00    -0.204 F 
ENDBRANCH   4   6
BRANCH   3  13
ATOM     13  S   UNL     1      44.832  81.478  40.270  0.00  0.00    +0.087 S 
ATOM     14  O   UNL     1      44.246  81.915  41.566  0.00  0.00    -0.148 OA
ATOM     15  O   UNL     1      44.559  82.615  39.293  0.00  0.00    -0.148 OA
BRANCH  13  16
ATOM     16  C   UNL     1      46.571  81.333  40.377  0.00  0.00    +0.147 A 
ATOM     17  C   UNL     1      47.436  81.873  39.455  0.00  0.00    +0.119 A 
ATOM     18  N   UNL     1      48.773  81.754  39.560  0.00  0.00    -0.241 NA
ATOM     19  C   UNL     1      49.314  81.096  40.581  0.00  0.00    +0.099 A 
ATOM     20  C   UNL     1      48.484  80.530  41.543  0.00  0.00    +0.022 A 
ATOM     21  C   UNL     1      47.115  80.636  41.460  0.00  0.00    +0.024 A 
ENDBRANCH  13  16
ENDBRANCH   3  13
BRANCH   1  22
ATOM     22  C   UNL     1      42.083  78.150  37.233  0.00  0.00    +0.117 C 
BRANCH  22  24
ATOM     23  C   UNL     1      40.210  76.929  36.565  0.00  0.00    +0.108 C 
ATOM     24  N   UNL     1      41.035  77.284  37.705  0.00  0.00    -0.212 NA
ENDBRANCH  22  24
ENDBRANCH   1  22
TORSDOF 5
REMARK  Name = Vonoprazan
REMARK  7 active torsions:
REMARK  status: ('A' for Active; 'I' for Inactive)
REMARK    1  A    between atoms: N_2  and  C_3
REMARK    2  A    between atoms: C_3  and  C_4
REMARK    3  A    between atoms: N_6  and  S_16
REMARK    4  A    between atoms: C_7  and  C_9
REMARK    5  A    between atoms: S_16  and  C_19
REMARK    6  A    between atoms: C_25  and  C_30
REMARK    7  A    between atoms: C_26  and  C_27
REMARK                            x       y       z     vdW  Elec       q    Type
REMARK                         _______ _______ _______ _____ _____    ______ ____
ROOT
ATOM      1  C   UNL     1      43.971  78.851  39.274  0.00  0.00    +0.093 C 
ATOM      2  C   UNL     1      44.967  79.609  38.952  0.00  0.00    +0.093 C 
ENDROOT
BRANCH   2   3
ATOM      3  C   UNL     1      46.048  79.990  39.794  0.00  0.00    +0.388 C 
ATOM      4  O   UNL     1      46.995  80.683  39.411  0.00  0.00    -0.241 OA
ATOM      5  O   UNL     1      46.109  79.589  41.157  0.00  0.00    -0.241 OA
ENDBRANCH   2   3
BRANCH   1   6
ATOM      6  C   UNL     1      42.882  78.310  38.510  0.00  0.00    +0.388 C 
ATOM      7  O   UNL     1      42.354  78.862  37.544  0.00  0.00    -0.241 OA
ATOM      8  O   UNL     1      42.331  77.049  38.849  0.00  0.00    -0.241 OA
ENDBRANCH   1   6
TORSDOF 2
