REMARK  Name = Vorinostat
REMARK  8 active torsions:
REMARK  status: ('A' for Active; 'I' for Inactive)
REMARK    1  A    between atoms: C_4  and  N_7
REMARK    2  A    between atoms: C_8  and  C_10
REMARK    3  A    between atoms: C_10  and  C_11
REMARK    4  A    between atoms: C_11  and  C_12
REMARK    5  A    between atoms: C_12  and  C_13
REMARK    6  A    between atoms: C_13  and  C_14
REMARK    7  A    between atoms: C_14  and  C_15
REMARK    8  A    between atoms: C_15  and  C_16
REMARK                            x       y       z     vdW  Elec       q    Type
REMARK                         _______ _______ _______ _____ _____    ______ ____
ROOT
ATOM      1  C   UNL     1      46.709  82.026  39.208  0.00  0.00    +0.087 C 
ENDROOT
BRANCH   1   3
ATOM      2  N   UNL     1      45.178  80.095  39.853  0.00  0.00    -0.179 NA
ATOM      3  C   UNL     1      45.478  81.203  39.044  0.00  0.00    +0.246 C 
ATOM      4  O   UNL     1      44.672  81.522  38.134  0.00  0.00    -0.273 OA
BRANCH   2   8
ATOM      5  C   UNL     1      42.057  77.559  38.642  0.00  0.00    +0.000 A 
ATOM      6  C   UNL     1      42.318  78.748  38.018  0.00  0.00    +0.001 A 
ATOM      7  C   UNL     1      43.340  79.607  38.394  0.00  0.00    +0.017 A 
ATOM      8  C   UNL     1      44.132  79.218  39.467  0.00  0.00    +0.073 A 
ATOM      9  C   UNL     1      43.902  78.032  40.120  0.00  0.00    +0.017 A 
ATOM     10  C   UNL     1      42.878  77.206  39.720  0.00  0.00    +0.001 A 
ENDBRANCH   2   8
ENDBRANCH   1   3
BRANCH   1  11
ATOM     11  C   UNL     1      46.724  82.747  40.527  0.00  0.00    +0.010 C 
BRANCH  11  12
ATOM     12  C   UNL     1      47.150  81.832  41.649  0.00  0.00    +0.001 C 
BRANCH  12  13
ATOM     13  C   UNL     1      48.604  81.525  41.559  0.00  0.00    +0.001 C 
BRANCH  13  14
ATOM     14  C   UNL     1      49.117  80.704  42.714  0.00  0.00    +0.010 C 
BRANCH  14  15
ATOM     15  C   UNL     1      50.573  80.388  42.456  0.00  0.00    +0.089 C 
BRANCH  15  16
ATOM     16  C   UNL     1      51.463  81.436  43.036  0.00  0.00    +0.270 C 
ATOM     17  O   UNL     1      51.912  82.386  42.333  0.00  0.00    -0.271 OA
ATOM     18  N   UNL     1      51.797  81.335  44.415  0.00  0.00    -0.028 NA
ATOM     19  O   UNL     1      52.705  82.200  44.970  0.00  0.00    -0.071 OA
ENDBRANCH  15  16
ENDBRANCH  14  15
ENDBRANCH  13  14
ENDBRANCH  12  13
ENDBRANCH  11  12
ENDBRANCH   1  11
TORSDOF 8
