REMARK  Name = Voriconazole
REMARK  5 active torsions:
REMARK  status: ('A' for Active; 'I' for Inactive)
REMARK    1  A    between atoms: C_2  and  C_3
REMARK    2  A    between atoms: C_2  and  C_10
REMARK    3  A    between atoms: C_10  and  C_11
REMARK    4  A    between atoms: C_10  and  C_17
REMARK    5  A    between atoms: C_11  and  N_12
REMARK                            x       y       z     vdW  Elec       q    Type
REMARK                         _______ _______ _______ _____ _____    ______ ____
ROOT
ATOM      1  C   UNL     1      48.516  81.210  42.160  0.00  0.00    +0.175 C 
ATOM      2  O   UNL     1      47.456  80.563  42.772  0.00  0.00    -0.219 OA
ENDROOT
BRANCH   1   3
ATOM      3  C   UNL     1      48.404  82.682  42.497  0.00  0.00    +0.035 A 
ATOM      4  C   UNL     1      47.191  83.216  42.914  0.00  0.00    +0.141 A 
ATOM      5  C   UNL     1      46.991  84.537  43.140  0.00  0.00    +0.059 A 
ATOM      6  C   UNL     1      48.002  85.425  42.964  0.00  0.00    +0.142 A 
ATOM      7  C   UNL     1      49.218  84.958  42.555  0.00  0.00    +0.030 A 
ATOM      8  C   UNL     1      49.412  83.587  42.322  0.00  0.00    +0.003 A 
ATOM      9  F   UNL     1      47.789  86.741  43.196  0.00  0.00    -0.204 F 
ATOM     10  F   UNL     1      46.149  82.377  43.114  0.00  0.00    -0.204 F 
ENDBRANCH   1   3
BRANCH   1  12
ATOM     11  C   UNL     1      48.841  79.661  40.205  0.00  0.00    +0.009 C 
ATOM     12  C   UNL     1      48.482  81.030  40.700  0.00  0.00    +0.077 C 
BRANCH  12  13
ATOM     13  C   UNL     1      47.214  81.499  40.115  0.00  0.00    +0.092 A 
ATOM     14  N   UNL     1      46.050  80.828  40.195  0.00  0.00    -0.226 NA
ATOM     15  C   UNL     1      44.901  81.258  39.661  0.00  0.00    +0.199 A 
ATOM     16  N   UNL     1      44.932  82.436  39.008  0.00  0.00    -0.220 NA
ATOM     17  C   UNL     1      46.061  83.156  38.892  0.00  0.00    +0.131 A 
ATOM     18  C   UNL     1      47.249  82.730  39.434  0.00  0.00    +0.173 A 
ATOM     19  F   UNL     1      48.418  83.405  39.353  0.00  0.00    -0.201 F 
ENDBRANCH  12  13
ENDBRANCH   1  12
BRANCH   1  20
ATOM     20  C   UNL     1      49.734  80.616  42.864  0.00  0.00    +0.164 C 
BRANCH  20  21
ATOM     21  N   UNL     1      50.951  81.346  42.632  0.00  0.00    -0.227 N 
ATOM     22  C   UNL     1      51.755  81.820  43.656  0.00  0.00    +0.197 A 
ATOM     23  N   UNL     1      52.827  82.440  43.143  0.00  0.00    -0.201 NA
ATOM     24  C   UNL     1      52.711  82.364  41.801  0.00  0.00    +0.221 A 
ATOM     25  N   UNL     1      51.578  81.703  41.557  0.00  0.00    -0.145 NA
ENDBRANCH  20  21
ENDBRANCH   1  20
TORSDOF 5
