REMARK  Name = Warfarin
REMARK  4 active torsions:
REMARK  status: ('A' for Active; 'I' for Inactive)
REMARK    1  A    between atoms: C_2  and  C_4
REMARK    2  A    between atoms: C_4  and  C_5
REMARK    3  A    between atoms: C_5  and  C_6
REMARK    4  A    between atoms: C_5  and  C_12
REMARK                            x       y       z     vdW  Elec       q    Type
REMARK                         _______ _______ _______ _____ _____    ______ ____
ROOT
ATOM      1  C   UNL     1      46.765  80.784  40.752  0.00  0.00    +0.097 A 
ATOM      2  C   UNL     1      46.094  79.643  41.133  0.00  0.00    +0.201 A 
ATOM      3  C   UNL     1      45.088  79.190  40.307  0.00  0.00    +0.073 A 
ATOM      4  C   UNL     1      44.392  78.038  40.668  0.00  0.00    +0.006 A 
ATOM      5  C   UNL     1      43.387  77.577  39.852  0.00  0.00    +0.000 A 
ATOM      6  C   UNL     1      43.084  78.250  38.703  0.00  0.00    +0.003 A 
ATOM      7  C   UNL     1      43.739  79.389  38.303  0.00  0.00    +0.038 A 
ATOM      8  C   UNL     1      44.760  79.851  39.139  0.00  0.00    +0.152 A 
ATOM      9  O   UNL     1      45.434  80.934  38.824  0.00  0.00    -0.421 OA
ATOM     10  C   UNL     1      46.406  81.393  39.600  0.00  0.00    +0.345 A 
ATOM     11  O   UNL     1      46.977  82.437  39.194  0.00  0.00    -0.245 OA
ATOM     12  O   UNL     1      46.366  78.945  42.270  0.00  0.00    -0.287 OA
ENDROOT
BRANCH   1  13
ATOM     13  C   UNL     1      47.837  81.269  41.625  0.00  0.00    +0.061 C 
BRANCH  13  14
ATOM     14  C   UNL     1      48.974  80.362  41.562  0.00  0.00    -0.018 A 
ATOM     15  C   UNL     1      49.344  79.888  40.296  0.00  0.00    -0.004 A 
ATOM     16  C   UNL     1      50.404  79.025  40.141  0.00  0.00    -0.000 A 
ATOM     17  C   UNL     1      51.135  78.599  41.213  0.00  0.00    -0.000 A 
ATOM     18  C   UNL     1      50.797  79.049  42.486  0.00  0.00    -0.000 A 
ATOM     19  C   UNL     1      49.731  79.912  42.611  0.00  0.00    -0.004 A 
ENDBRANCH  13  14
BRANCH  13  20
ATOM     20  C   UNL     1      48.156  82.708  41.331  0.00  0.00    +0.074 C 
BRANCH  20  22
ATOM     21  C   UNL     1      48.154  84.993  42.590  0.00  0.00    +0.072 C 
ATOM     22  C   UNL     1      47.882  83.552  42.548  0.00  0.00    +0.152 C 
ATOM     23  O   UNL     1      47.416  83.017  43.539  0.00  0.00    -0.296 OA
ENDBRANCH  20  22
ENDBRANCH  13  20
ENDBRANCH   1  13
TORSDOF 4
