REMARK  Name = Xatral
REMARK  7 active torsions:
REMARK  status: ('A' for Active; 'I' for Inactive)
REMARK    1  A    between atoms: N_2  and  C_3
REMARK    2  A    between atoms: C_3  and  C_4
REMARK    3  A    between atoms: C_4  and  C_5
REMARK    4  A    between atoms: C_5  and  N_6
REMARK    5  A    between atoms: C_7  and  C_9
REMARK    6  A    between atoms: C_18  and  O_27
REMARK    7  A    between atoms: C_19  and  O_25
REMARK                            x       y       z     vdW  Elec       q    Type
REMARK                         _______ _______ _______ _____ _____    ______ ____
ROOT
ATOM      1  C   UNL     1      43.571  78.146  40.477  0.00  0.00    +0.115 C 
ATOM      2  N   UNL     1      43.951  78.985  39.396  0.00  0.00    -0.276 N 
ATOM      3  C   UNL     1      45.083  79.877  39.635  0.00  0.00    +0.221 A 
ATOM      4  N   UNL     1      45.704  79.878  40.826  0.00  0.00    -0.213 NA
ATOM      5  C   UNL     1      46.746  80.688  41.076  0.00  0.00    +0.090 A 
ATOM      6  C   UNL     1      47.384  80.689  42.301  0.00  0.00    +0.059 A 
ATOM      7  C   UNL     1      48.451  81.534  42.526  0.00  0.00    +0.174 A 
ATOM      8  C   UNL     1      48.852  82.363  41.501  0.00  0.00    +0.173 A 
ATOM      9  C   UNL     1      48.212  82.363  40.268  0.00  0.00    +0.044 A 
ATOM     10  C   UNL     1      47.148  81.521  40.042  0.00  0.00    +0.056 A 
ATOM     11  C   UNL     1      46.518  81.527  38.819  0.00  0.00    +0.174 A 
ATOM     12  N   UNL     1      45.468  80.678  38.638  0.00  0.00    -0.195 NA
ATOM     13  N   UNL     1      46.911  82.371  37.744  0.00  0.00    -0.107 NA
ENDROOT
BRANCH   8  14
ATOM     14  O   UNL     1      49.919  83.203  41.736  0.00  0.00    -0.468 OA
ATOM     15  C   UNL     1      50.352  84.064  40.705  0.00  0.00    +0.253 C 
ENDBRANCH   8  14
BRANCH   7  16
ATOM     16  O   UNL     1      49.124  81.573  43.736  0.00  0.00    -0.468 OA
ATOM     17  C   UNL     1      48.698  80.718  44.769  0.00  0.00    +0.253 C 
ENDBRANCH   7  16
BRANCH   2  18
ATOM     18  C   UNL     1      43.313  79.026  38.104  0.00  0.00    +0.095 C 
BRANCH  18  19
ATOM     19  C   UNL     1      41.932  79.539  38.086  0.00  0.00    +0.045 C 
BRANCH  19  20
ATOM     20  C   UNL     1      40.802  78.850  38.693  0.00  0.00    +0.117 C 
BRANCH  20  21
ATOM     21  N   UNL     1      40.267  77.655  38.133  0.00  0.00    -0.203 NA
ATOM     22  C   UNL     1      40.832  76.409  37.904  0.00  0.00    +0.269 C 
ATOM     23  O   UNL     1      42.009  76.169  38.199  0.00  0.00    -0.271 OA
BRANCH  22  24
ATOM     24  C   UNL     1      40.047  75.282  37.285  0.00  0.00    +0.193 C 
ATOM     25  C   UNL     1      40.611  74.919  35.932  0.00  0.00    +0.042 C 
ATOM     26  C   UNL     1      39.412  74.273  35.271  0.00  0.00    +0.035 C 
ATOM     27  C   UNL     1      38.261  74.833  36.032  0.00  0.00    +0.143 C 
ATOM     28  O   UNL     1      38.763  75.669  37.014  0.00  0.00    -0.347 OA
ENDBRANCH  22  24
ENDBRANCH  20  21
ENDBRANCH  19  20
ENDBRANCH  18  19
ENDBRANCH   2  18
TORSDOF 7
REMARK  Name = Xatral
REMARK  7 active torsions:
REMARK  status: ('A' for Active; 'I' for Inactive)
REMARK    1  A    between atoms: N_2  and  C_3
REMARK    2  A    between atoms: C_3  and  C_4
REMARK    3  A    between atoms: C_4  and  C_5
REMARK    4  A    between atoms: C_5  and  N_6
REMARK    5  A    between atoms: C_7  and  C_9
REMARK    6  A    between atoms: C_18  and  O_27
REMARK    7  A    between atoms: C_19  and  O_25
REMARK                            x       y       z     vdW  Elec       q    Type
REMARK                         _______ _______ _______ _____ _____    ______ ____
ROOT
ATOM      1 CL   UNL     1      44.706  79.643  39.501  0.00  0.00    +0.000 Cl
ENDROOT
TORSDOF 0
