REMARK  Name = Ximelegatran
REMARK  3 active torsions:
REMARK  status: ('A' for Active; 'I' for Inactive)
REMARK    1  A    between atoms: C_2  and  C_3
REMARK    2  A    between atoms: C_6  and  C_9
REMARK    3  A    between atoms: N_11  and  C_12
REMARK                            x       y       z     vdW  Elec       q    Type
REMARK                         _______ _______ _______ _____ _____    ______ ____
ROOT
ATOM      1  C   UNL     1      50.763  83.665  42.623  0.00  0.00    +0.018 C 
ATOM      2  C   UNL     1      50.757  82.224  42.160  0.00  0.00    +0.002 C 
ATOM      3  C   UNL     1      49.550  82.017  41.302  0.00  0.00    +0.009 C 
ATOM      4  C   UNL     1      48.337  81.980  42.195  0.00  0.00    +0.079 C 
ATOM      5  C   UNL     1      48.317  83.237  43.007  0.00  0.00    +0.009 C 
ATOM      6  C   UNL     1      49.374  84.228  42.572  0.00  0.00    +0.002 C 
ENDROOT
BRANCH   1   8
ATOM      7  C   UNL     1      50.813  82.700  44.876  0.00  0.00    +0.020 C 
ATOM      8  C   UNL     1      51.379  83.782  44.004  0.00  0.00    +0.092 C 
ATOM      9  N   UNL     1      52.813  83.710  43.856  0.00  0.00    -0.133 NA
ENDBRANCH   1   8
BRANCH   4  10
ATOM     10  C   UNL     1      47.110  81.825  41.348  0.00  0.00    +0.245 C 
ATOM     11  O   UNL     1      46.539  82.851  40.926  0.00  0.00    -0.273 OA
ATOM     12  N   UNL     1      46.579  80.573  41.011  0.00  0.00    -0.179 NA
BRANCH  12  13
ATOM     13  C   UNL     1      45.577  80.255  40.078  0.00  0.00    +0.076 A 
ATOM     14  C   UNL     1      44.894  79.090  40.033  0.00  0.00    +0.037 A 
ATOM     15  C   UNL     1      43.893  78.803  39.082  0.00  0.00    +0.100 A 
ATOM     16  N   UNL     1      43.599  79.733  38.170  0.00  0.00    -0.242 NA
ATOM     17  C   UNL     1      44.254  80.903  38.180  0.00  0.00    +0.100 A 
ATOM     18  C   UNL     1      45.233  81.204  39.097  0.00  0.00    +0.037 A 
ENDBRANCH  12  13
ENDBRANCH   4  10
TORSDOF 3
