REMARK  Name = Xipamide
REMARK  3 active torsions:
REMARK  status: ('A' for Active; 'I' for Inactive)
REMARK    1  A    between atoms: C_3  and  N_9
REMARK    2  A    between atoms: C_10  and  C_12
REMARK    3  A    between atoms: C_14  and  S_20
REMARK                            x       y       z     vdW  Elec       q    Type
REMARK                         _______ _______ _______ _____ _____    ______ ____
ROOT
ATOM      1  C   UNL     1      46.297  80.841  40.613  0.00  0.00    +0.096 A 
ATOM      2  C   UNL     1      45.789  79.587  41.012  0.00  0.00    +0.029 A 
ATOM      3  C   UNL     1      44.835  78.910  40.328  0.00  0.00    +0.136 A 
ATOM      4  C   UNL     1      44.340  79.481  39.185  0.00  0.00    +0.080 A 
ATOM      5  C   UNL     1      44.780  80.691  38.733  0.00  0.00    +0.055 A 
ATOM      6  C   UNL     1      45.758  81.348  39.466  0.00  0.00    +0.201 A 
ATOM      7  O   UNL     1      46.157  82.571  38.949  0.00  0.00    -0.286 OA
ATOM      8 CL   UNL     1      43.110  78.625  38.289  0.00  0.00    -0.081 Cl
ENDROOT
BRANCH   3   9
ATOM      9  S   UNL     1      44.242  77.367  40.862  0.00  0.00    +0.094 S 
ATOM     10  O   UNL     1      44.589  77.125  42.303  0.00  0.00    -0.150 OA
ATOM     11  O   UNL     1      42.725  77.369  40.736  0.00  0.00    -0.150 OA
ATOM     12  N   UNL     1      44.827  76.059  39.944  0.00  0.00    +0.039 NA
ENDBRANCH   3   9
BRANCH   1  14
ATOM     13  N   UNL     1      47.918  82.729  41.151  0.00  0.00    -0.176 NA
ATOM     14  C   UNL     1      47.316  81.481  41.415  0.00  0.00    +0.272 C 
ATOM     15  O   UNL     1      47.737  80.875  42.484  0.00  0.00    -0.268 OA
BRANCH  13  18
ATOM     16  C   UNL     1      50.619  81.850  40.981  0.00  0.00    +0.032 C 
ATOM     17  C   UNL     1      50.221  82.866  41.981  0.00  0.00    -0.007 A 
ATOM     18  C   UNL     1      48.919  83.272  42.044  0.00  0.00    +0.066 A 
ATOM     19  C   UNL     1      48.526  84.207  42.956  0.00  0.00    -0.007 A 
ATOM     20  C   UNL     1      49.493  84.733  43.822  0.00  0.00    -0.003 A 
ATOM     21  C   UNL     1      50.807  84.330  43.766  0.00  0.00    -0.001 A 
ATOM     22  C   UNL     1      51.195  83.386  42.842  0.00  0.00    -0.003 A 
ATOM     23  C   UNL     1      47.155  84.716  43.113  0.00  0.00    +0.032 C 
ENDBRANCH  13  18
ENDBRANCH   1  14
TORSDOF 3
