REMARK  Name = Y-25130
REMARK  2 active torsions:
REMARK  status: ('A' for Active; 'I' for Inactive)
REMARK    1  A    between atoms: C_8  and  C_14
REMARK    2  A    between atoms: N_16  and  C_17
REMARK                            x       y       z     vdW  Elec       q    Type
REMARK                         _______ _______ _______ _____ _____    ______ ____
ROOT
ATOM      1  C   UNL     1      52.062  83.754  42.690  0.00  0.00    +0.120 C 
ATOM      2  N   UNL     1      51.085  82.769  42.361  0.00  0.00    -0.251 N 
ATOM      3  C   UNL     1      51.398  81.483  41.882  0.00  0.00    +0.274 C 
ATOM      4  O   UNL     1      52.527  80.998  42.056  0.00  0.00    -0.270 OA
ATOM      5  C   UNL     1      50.364  80.703  41.164  0.00  0.00    +0.290 C 
ATOM      6  O   UNL     1      49.117  80.931  41.757  0.00  0.00    -0.464 OA
ATOM      7  C   UNL     1      48.725  82.163  42.216  0.00  0.00    +0.157 A 
ATOM      8  C   UNL     1      47.400  82.443  42.358  0.00  0.00    +0.091 A 
ATOM      9  C   UNL     1      47.051  83.715  42.830  0.00  0.00    +0.019 A 
ATOM     10  C   UNL     1      47.993  84.655  43.142  0.00  0.00    +0.059 A 
ATOM     11  C   UNL     1      49.321  84.338  42.986  0.00  0.00    +0.029 A 
ATOM     12  C   UNL     1      49.682  83.091  42.523  0.00  0.00    +0.089 A 
ATOM     13 CL   UNL     1      47.524  86.257  43.737  0.00  0.00    -0.082 Cl
ENDROOT
BRANCH   8  14
ATOM     14  C   UNL     1      46.299  81.513  42.055  0.00  0.00    +0.268 C 
ATOM     15  O   UNL     1      45.727  80.909  43.013  0.00  0.00    -0.268 OA
ATOM     16  N   UNL     1      45.782  81.197  40.793  0.00  0.00    -0.202 NA
BRANCH  16  17
ATOM     17  C   UNL     1      44.696  80.274  40.566  0.00  0.00    +0.112 C 
ATOM     18  C   UNL     1      44.208  80.485  39.143  0.00  0.00    +0.094 C 
ATOM     19  N   UNL     1      43.939  79.250  38.474  0.00  0.00    -0.271 NA
ATOM     20  C   UNL     1      45.184  78.550  38.281  0.00  0.00    +0.072 C 
ATOM     21  C   UNL     1      45.960  78.383  39.572  0.00  0.00    +0.019 C 
ATOM     22  C   UNL     1      45.047  78.835  40.697  0.00  0.00    +0.024 C 
ATOM     23  C   UNL     1      43.750  78.054  40.531  0.00  0.00    +0.019 C 
ATOM     24  C   UNL     1      43.056  78.396  39.246  0.00  0.00    +0.072 C 
ENDBRANCH  16  17
ENDBRANCH   8  14
TORSDOF 2
