REMARK  Name = YM443
REMARK  9 active torsions:
REMARK  status: ('A' for Active; 'I' for Inactive)
REMARK    1  A    between atoms: C_2  and  N_4
REMARK    2  A    between atoms: N_4  and  C_5
REMARK    3  A    between atoms: N_4  and  C_29
REMARK    4  A    between atoms: C_5  and  C_6
REMARK    5  A    between atoms: C_6  and  N_7
REMARK    6  A    between atoms: C_8  and  C_10
REMARK    7  A    between atoms: C_16  and  C_18
REMARK    8  A    between atoms: C_20  and  O_27
REMARK    9  A    between atoms: C_21  and  O_25
REMARK                            x       y       z     vdW  Elec       q    Type
REMARK                         _______ _______ _______ _____ _____    ______ ____
ROOT
ATOM      1  C   UNL     1      44.472  79.829  39.075  0.00  0.00    +0.145 A 
ATOM      2  C   UNL     1      44.450  80.486  37.866  0.00  0.00    +0.062 A 
ATOM      3  S   UNL     1      45.787  81.538  38.019  0.00  0.00    -0.049 S 
ATOM      4  C   UNL     1      46.283  81.085  39.584  0.00  0.00    +0.186 A 
ATOM      5  N   UNL     1      45.409  80.159  39.912  0.00  0.00    -0.218 NA
ATOM      6  N   UNL     1      47.407  81.613  40.337  0.00  0.00    -0.150 NA
ATOM      7  C   UNL     1      47.669  81.152  41.645  0.00  0.00    +0.274 C 
ATOM      8  O   UNL     1      46.833  80.262  42.058  0.00  0.00    -0.268 OA
ENDROOT
BRANCH   7   9
ATOM      9  C   UNL     1      48.749  81.589  42.494  0.00  0.00    +0.097 A 
ATOM     10  C   UNL     1      48.827  81.019  43.775  0.00  0.00    +0.048 A 
ATOM     11  C   UNL     1      49.816  81.377  44.660  0.00  0.00    +0.173 A 
ATOM     12  C   UNL     1      50.786  82.306  44.358  0.00  0.00    +0.176 A 
ATOM     13  C   UNL     1      50.724  82.873  43.109  0.00  0.00    +0.082 A 
ATOM     14  C   UNL     1      49.715  82.511  42.200  0.00  0.00    +0.203 A 
ATOM     15  O   UNL     1      49.708  83.120  40.955  0.00  0.00    -0.286 OA
BRANCH  12  16
ATOM     16  O   UNL     1      51.773  82.649  45.272  0.00  0.00    -0.468 OA
ATOM     17  C   UNL     1      52.783  83.579  45.011  0.00  0.00    +0.253 C 
ENDBRANCH  12  16
BRANCH  11  18
ATOM     18  O   UNL     1      49.898  80.813  45.938  0.00  0.00    -0.468 OA
ATOM     19  C   UNL     1      48.917  79.848  46.296  0.00  0.00    +0.253 C 
ENDBRANCH  11  18
ENDBRANCH   7   9
BRANCH   1  21
ATOM     20  N   UNL     1      42.441  78.460  38.485  0.00  0.00    -0.199 NA
ATOM     21  C   UNL     1      43.464  78.784  39.397  0.00  0.00    +0.283 C 
ATOM     22  O   UNL     1      43.490  78.159  40.484  0.00  0.00    -0.267 OA
BRANCH  20  23
ATOM     23  C   UNL     1      41.454  77.442  38.777  0.00  0.00    +0.133 C 
BRANCH  23  24
ATOM     24  C   UNL     1      40.490  77.337  37.607  0.00  0.00    +0.096 C 
BRANCH  24  25
ATOM     25  N   UNL     1      39.492  76.366  37.773  0.00  0.00    -0.274 NA
BRANCH  25  27
ATOM     26  C   UNL     1      37.841  77.971  38.423  0.00  0.00    +0.017 C 
ATOM     27  C   UNL     1      38.556  76.659  38.781  0.00  0.00    +0.058 C 
ATOM     28  C   UNL     1      37.493  75.649  39.048  0.00  0.00    +0.017 C 
ENDBRANCH  25  27
BRANCH  25  29
ATOM     29  C   UNL     1      39.184  75.463  36.757  0.00  0.00    +0.058 C 
ATOM     30  C   UNL     1      37.952  75.949  35.993  0.00  0.00    +0.017 C 
ATOM     31  C   UNL     1      40.257  75.296  35.701  0.00  0.00    +0.017 C 
ENDBRANCH  25  29
ENDBRANCH  24  25
ENDBRANCH  23  24
ENDBRANCH  20  23
ENDBRANCH   1  21
TORSDOF 9
REMARK  Name = YM443
REMARK  9 active torsions:
REMARK  status: ('A' for Active; 'I' for Inactive)
REMARK    1  A    between atoms: C_2  and  N_4
REMARK    2  A    between atoms: N_4  and  C_5
REMARK    3  A    between atoms: N_4  and  C_29
REMARK    4  A    between atoms: C_5  and  C_6
REMARK    5  A    between atoms: C_6  and  N_7
REMARK    6  A    between atoms: C_8  and  C_10
REMARK    7  A    between atoms: C_16  and  C_18
REMARK    8  A    between atoms: C_20  and  O_27
REMARK    9  A    between atoms: C_21  and  O_25
REMARK                            x       y       z     vdW  Elec       q    Type
REMARK                         _______ _______ _______ _____ _____    ______ ____
ROOT
ATOM      1  O   HOH     1      43.890  79.374  40.366  0.00  0.00    +0.000 OA
ENDROOT
TORSDOF 0
REMARK  Name = YM443
REMARK  9 active torsions:
REMARK  status: ('A' for Active; 'I' for Inactive)
REMARK    1  A    between atoms: C_2  and  N_4
REMARK    2  A    between atoms: N_4  and  C_5
REMARK    3  A    between atoms: N_4  and  C_29
REMARK    4  A    between atoms: C_5  and  C_6
REMARK    5  A    between atoms: C_6  and  N_7
REMARK    6  A    between atoms: C_8  and  C_10
REMARK    7  A    between atoms: C_16  and  C_18
REMARK    8  A    between atoms: C_20  and  O_27
REMARK    9  A    between atoms: C_21  and  O_25
REMARK                            x       y       z     vdW  Elec       q    Type
REMARK                         _______ _______ _______ _____ _____    ______ ____
ROOT
ATOM      1  O   HOH     1      43.889  79.371  40.363  0.00  0.00    +0.000 OA
ENDROOT
TORSDOF 0
REMARK  Name = YM443
REMARK  9 active torsions:
REMARK  status: ('A' for Active; 'I' for Inactive)
REMARK    1  A    between atoms: C_2  and  N_4
REMARK    2  A    between atoms: N_4  and  C_5
REMARK    3  A    between atoms: N_4  and  C_29
REMARK    4  A    between atoms: C_5  and  C_6
REMARK    5  A    between atoms: C_6  and  N_7
REMARK    6  A    between atoms: C_8  and  C_10
REMARK    7  A    between atoms: C_16  and  C_18
REMARK    8  A    between atoms: C_20  and  O_27
REMARK    9  A    between atoms: C_21  and  O_25
REMARK                            x       y       z     vdW  Elec       q    Type
REMARK                         _______ _______ _______ _____ _____    ______ ____
ROOT
ATOM      1  O   HOH     1      43.886  79.373  40.365  0.00  0.00    +0.000 OA
ENDROOT
TORSDOF 0
REMARK  Name = YM443
REMARK  9 active torsions:
REMARK  status: ('A' for Active; 'I' for Inactive)
REMARK    1  A    between atoms: C_2  and  N_4
REMARK    2  A    between atoms: N_4  and  C_5
REMARK    3  A    between atoms: N_4  and  C_29
REMARK    4  A    between atoms: C_5  and  C_6
REMARK    5  A    between atoms: C_6  and  N_7
REMARK    6  A    between atoms: C_8  and  C_10
REMARK    7  A    between atoms: C_16  and  C_18
REMARK    8  A    between atoms: C_20  and  O_27
REMARK    9  A    between atoms: C_21  and  O_25
REMARK                            x       y       z     vdW  Elec       q    Type
REMARK                         _______ _______ _______ _____ _____    ______ ____
ROOT
ATOM      1 CL   UNL     1      44.654  79.420  40.523  0.00  0.00    +0.000 Cl
ENDROOT
TORSDOF 0
