REMARK  Name = YN-968D1
REMARK  6 active torsions:
REMARK  status: ('A' for Active; 'I' for Inactive)
REMARK    1  A    between atoms: C_9  and  C_11
REMARK    2  A    between atoms: C_9  and  C_13
REMARK    3  A    between atoms: C_16  and  N_19
REMARK    4  A    between atoms: C_20  and  C_22
REMARK    5  A    between atoms: N_28  and  C_29
REMARK    6  A    between atoms: C_29  and  C_30
REMARK                            x       y       z     vdW  Elec       q    Type
REMARK                         _______ _______ _______ _____ _____    ______ ____
ROOT
ATOM      1  C   UNL     1      44.965  79.258  40.422  0.00  0.00    +0.213 C 
ATOM      2  S   UNL     1      46.467  79.859  41.172  0.00  0.00    +0.123 S 
ATOM      3  O   UNL     1      47.511  80.039  40.110  0.00  0.00    -0.144 OA
ATOM      4  O   UNL     1      46.890  78.848  42.206  0.00  0.00    -0.144 OA
ATOM      5  O   UNL     1      46.244  81.328  41.929  0.00  0.00    -0.047 OA
ENDROOT
TORSDOF 0
REMARK  Name = YN-968D1
REMARK  6 active torsions:
REMARK  status: ('A' for Active; 'I' for Inactive)
REMARK    1  A    between atoms: C_9  and  C_11
REMARK    2  A    between atoms: C_9  and  C_13
REMARK    3  A    between atoms: C_16  and  N_19
REMARK    4  A    between atoms: C_20  and  C_22
REMARK    5  A    between atoms: N_28  and  C_29
REMARK    6  A    between atoms: C_29  and  C_30
REMARK                            x       y       z     vdW  Elec       q    Type
REMARK                         _______ _______ _______ _____ _____    ______ ____
ROOT
ATOM      1  N   UNL     1      47.035  78.299  41.679  0.00  0.00    -0.175 NA
ATOM      2  C   UNL     1      45.665  78.166  41.227  0.00  0.00    +0.272 C 
ATOM      3  O   UNL     1      45.124  79.295  40.985  0.00  0.00    -0.268 OA
ENDROOT
BRANCH   2   4
ATOM      4  C   UNL     1      44.988  76.909  41.068  0.00  0.00    +0.088 A 
ATOM      5  C   UNL     1      43.660  76.805  40.788  0.00  0.00    +0.152 A 
ATOM      6  N   UNL     1      43.083  75.573  40.557  0.00  0.00    -0.228 NA
ATOM      7  C   UNL     1      43.832  74.473  40.612  0.00  0.00    +0.100 A 
ATOM      8  C   UNL     1      45.177  74.500  40.891  0.00  0.00    +0.021 A 
ATOM      9  C   UNL     1      45.738  75.736  41.118  0.00  0.00    +0.009 A 
ATOM     10  N   UNL     1      42.807  77.930  40.804  0.00  0.00    -0.215 NA
BRANCH  10  11
ATOM     11  C   UNL     1      41.381  77.793  40.460  0.00  0.00    +0.140 C 
BRANCH  11  12
ATOM     12  C   UNL     1      41.186  77.535  39.025  0.00  0.00    +0.002 A 
ATOM     13  C   UNL     1      40.953  76.330  38.453  0.00  0.00    +0.018 A 
ATOM     14  C   UNL     1      40.806  76.151  37.097  0.00  0.00    +0.099 A 
ATOM     15  N   UNL     1      40.895  77.210  36.287  0.00  0.00    -0.242 NA
ATOM     16  C   UNL     1      41.125  78.428  36.820  0.00  0.00    +0.099 A 
ATOM     17  C   UNL     1      41.275  78.640  38.157  0.00  0.00    +0.018 A 
ENDBRANCH  11  12
ENDBRANCH  10  11
ENDBRANCH   2   4
BRANCH   1  21
ATOM     18  C   UNL     1      48.767  82.164  41.842  0.00  0.00    -0.010 A 
ATOM     19  C   UNL     1      48.856  81.372  40.697  0.00  0.00    -0.002 A 
ATOM     20  C   UNL     1      48.281  80.119  40.696  0.00  0.00    +0.016 A 
ATOM     21  C   UNL     1      47.617  79.611  41.787  0.00  0.00    +0.074 A 
ATOM     22  C   UNL     1      47.522  80.375  42.919  0.00  0.00    +0.016 A 
ATOM     23  C   UNL     1      48.102  81.651  42.931  0.00  0.00    -0.002 A 
BRANCH  18  27
ATOM     24  C   UNL     1      48.810  84.973  43.689  0.00  0.00    +0.001 C 
ATOM     25  C   UNL     1      47.979  85.373  42.512  0.00  0.00    +0.001 C 
ATOM     26  C   UNL     1      48.441  84.567  41.349  0.00  0.00    +0.018 C 
ATOM     27  C   UNL     1      49.373  83.507  41.838  0.00  0.00    +0.098 C 
ATOM     28  C   UNL     1      49.824  83.967  43.183  0.00  0.00    +0.018 C 
BRANCH  27  29
ATOM     29  C   UNL     1      50.568  83.490  40.955  0.00  0.00    +0.075 C 
ATOM     30  N   UNL     1      51.500  83.460  40.257  0.00  0.00    -0.196 NA
ENDBRANCH  27  29
ENDBRANCH  18  27
ENDBRANCH   1  21
TORSDOF 6
