REMARK  Name = Yohimbine
REMARK  2 active torsions:
REMARK  status: ('A' for Active; 'I' for Inactive)
REMARK    1  A    between atoms: O_2  and  C_3
REMARK    2  A    between atoms: C_3  and  C_5
REMARK                            x       y       z     vdW  Elec       q    Type
REMARK                         _______ _______ _______ _____ _____    ______ ____
ROOT
ATOM      1  C   UNL     1      49.345  81.769  42.846  0.00  0.00    +0.129 C 
ATOM      2  C   UNL     1      50.464  82.761  42.708  0.00  0.00    +0.162 C 
ATOM      3  C   UNL     1      51.008  82.888  41.330  0.00  0.00    +0.034 C 
ATOM      4  C   UNL     1      49.990  82.918  40.245  0.00  0.00    +0.004 C 
ATOM      5  C   UNL     1      48.600  82.949  40.851  0.00  0.00    +0.017 C 
ATOM      6  C   UNL     1      48.467  81.659  41.651  0.00  0.00    +0.016 C 
ATOM      7  C   UNL     1      47.027  81.414  42.050  0.00  0.00    +0.023 C 
ATOM      8  C   UNL     1      46.120  81.490  40.832  0.00  0.00    +0.098 C 
ATOM      9  C   UNL     1      45.324  80.240  40.686  0.00  0.00    +0.069 A 
ATOM     10  C   UNL     1      44.721  80.024  39.479  0.00  0.00    -0.004 A 
ATOM     11  C   UNL     1      44.910  81.047  38.425  0.00  0.00    +0.045 C 
ATOM     12  C   UNL     1      46.385  81.403  38.426  0.00  0.00    +0.077 C 
ATOM     13  N   UNL     1      46.917  81.734  39.686  0.00  0.00    -0.269 NA
ATOM     14  C   UNL     1      47.525  83.034  39.788  0.00  0.00    +0.072 C 
ATOM     15  C   UNL     1      44.043  78.831  39.546  0.00  0.00    +0.015 A 
ATOM     16  C   UNL     1      43.264  78.126  38.625  0.00  0.00    +0.001 A 
ATOM     17  C   UNL     1      42.714  76.945  38.999  0.00  0.00    +0.000 A 
ATOM     18  C   UNL     1      42.897  76.413  40.260  0.00  0.00    +0.002 A 
ATOM     19  C   UNL     1      43.665  77.104  41.175  0.00  0.00    +0.019 A 
ATOM     20  C   UNL     1      44.244  78.328  40.809  0.00  0.00    +0.081 A 
ATOM     21  N   UNL     1      45.021  79.202  41.472  0.00  0.00    -0.249 NA
ATOM     22  O   UNL     1      50.139  84.015  43.249  0.00  0.00    -0.223 OA
ENDROOT
BRANCH   1  23
ATOM     23  C   UNL     1      49.926  80.411  43.137  0.00  0.00    +0.319 C 
ATOM     24  O   UNL     1      50.968  80.015  42.544  0.00  0.00    -0.250 OA
BRANCH  23  26
ATOM     25  C   UNL     1      49.675  79.524  45.420  0.00  0.00    +0.256 C 
ATOM     26  O   UNL     1      49.352  79.564  44.048  0.00  0.00    -0.444 OA
ENDBRANCH  23  26
ENDBRANCH   1  23
TORSDOF 2
