REMARK  Name = Zafirlukast
REMARK  9 active torsions:
REMARK  status: ('A' for Active; 'I' for Inactive)
REMARK    1  A    between atoms: C_7  and  S_8
REMARK    2  A    between atoms: S_8  and  N_11
REMARK    3  A    between atoms: C_12  and  C_14
REMARK    4  A    between atoms: C_16  and  O_40
REMARK    5  A    between atoms: C_17  and  C_20
REMARK    6  A    between atoms: C_20  and  C_21
REMARK    7  A    between atoms: C_27  and  N_30
REMARK    8  A    between atoms: C_31  and  O_33
REMARK    9  A    between atoms: O_33  and  C_34
REMARK                            x       y       z     vdW  Elec       q    Type
REMARK                         _______ _______ _______ _____ _____    ______ ____
ROOT
ATOM      1  C   UNL     1      46.285  80.141  41.179  0.00  0.00    +0.060 A 
ATOM      2  C   UNL     1      46.171  79.083  41.999  0.00  0.00    +0.041 A 
ATOM      3  C   UNL     1      45.287  78.042  41.754  0.00  0.00    +0.135 A 
ATOM      4  C   UNL     1      44.482  78.115  40.590  0.00  0.00    +0.016 A 
ATOM      5  C   UNL     1      44.610  79.194  39.753  0.00  0.00    -0.001 A 
ATOM      6  C   UNL     1      45.512  80.239  40.022  0.00  0.00    +0.005 A 
ENDROOT
BRANCH   1   8
ATOM      7  N   UNL     1      47.808  81.530  42.633  0.00  0.00    -0.055 NA
ATOM      8  C   UNL     1      47.094  81.348  41.429  0.00  0.00    +0.286 C 
ATOM      9  O   UNL     1      47.127  82.247  40.545  0.00  0.00    -0.267 OA
BRANCH   7  10
ATOM     10  S   UNL     1      48.740  82.906  43.035  0.00  0.00    +0.095 S 
ATOM     11  O   UNL     1      48.914  82.868  44.548  0.00  0.00    -0.148 OA
ATOM     12  O   UNL     1      47.936  84.184  42.813  0.00  0.00    -0.148 OA
BRANCH  10  19
ATOM     13  C   UNL     1      50.907  80.723  43.026  0.00  0.00    +0.032 C 
ATOM     14  C   UNL     1      51.285  81.977  42.379  0.00  0.00    -0.003 A 
ATOM     15  C   UNL     1      52.484  82.238  41.787  0.00  0.00    -0.003 A 
ATOM     16  C   UNL     1      52.858  83.355  41.128  0.00  0.00    -0.000 A 
ATOM     17  C   UNL     1      51.854  84.369  41.057  0.00  0.00    +0.001 A 
ATOM     18  C   UNL     1      50.660  84.117  41.646  0.00  0.00    +0.020 A 
ATOM     19  C   UNL     1      50.282  83.013  42.303  0.00  0.00    +0.123 A 
ENDBRANCH  10  19
ENDBRANCH   7  10
ENDBRANCH   1   8
BRANCH   3  20
ATOM     20  O   UNL     1      45.106  76.984  42.499  0.00  0.00    -0.472 OA
ATOM     21  C   UNL     1      45.088  75.859  43.126  0.00  0.00    +0.252 C 
ENDBRANCH   3  20
BRANCH   4  22
ATOM     22  C   UNL     1      43.425  77.083  40.418  0.00  0.00    +0.057 C 
BRANCH  22  23
ATOM     23  C   UNL     1      42.514  77.447  39.277  0.00  0.00    +0.001 A 
ATOM     24  C   UNL     1      42.462  78.412  38.407  0.00  0.00    +0.072 A 
ATOM     25  N   UNL     1      41.443  78.175  37.512  0.00  0.00    -0.324 N 
ATOM     26  C   UNL     1      40.880  77.043  37.859  0.00  0.00    +0.060 A 
ATOM     27  C   UNL     1      41.469  76.480  38.984  0.00  0.00    +0.015 A 
ATOM     28  C   UNL     1      41.038  75.325  39.514  0.00  0.00    +0.018 A 
ATOM     29  C   UNL     1      39.975  74.607  38.964  0.00  0.00    +0.077 A 
ATOM     30  C   UNL     1      39.401  75.135  37.870  0.00  0.00    +0.018 A 
ATOM     31  C   UNL     1      39.808  76.365  37.252  0.00  0.00    +0.019 A 
ATOM     32  C   UNL     1      41.088  79.097  36.418  0.00  0.00    +0.130 C 
BRANCH  29  33
ATOM     33  N   UNL     1      39.609  73.333  39.554  0.00  0.00    -0.142 NA
ATOM     34  C   UNL     1      40.142  72.934  40.790  0.00  0.00    +0.425 C 
ATOM     35  O   UNL     1      41.382  73.209  40.963  0.00  0.00    -0.224 OA
BRANCH  34  36
ATOM     36  O   UNL     1      39.526  72.290  41.846  0.00  0.00    -0.437 OA
BRANCH  36  37
ATOM     37  C   UNL     1      40.001  70.937  42.169  0.00  0.00    +0.171 C 
ATOM     38  C   UNL     1      38.912  70.144  42.787  0.00  0.00    +0.044 C 
ATOM     39  C   UNL     1      38.639  70.888  44.098  0.00  0.00    +0.004 C 
ATOM     40  C   UNL     1      39.873  71.773  44.319  0.00  0.00    +0.004 C 
ATOM     41  C   UNL     1      40.936  71.217  43.376  0.00  0.00    +0.044 C 
ENDBRANCH  36  37
ENDBRANCH  34  36
ENDBRANCH  29  33
ENDBRANCH  22  23
ENDBRANCH   4  22
TORSDOF 9
