REMARK  Name = Zalcitabine
REMARK  2 active torsions:
REMARK  status: ('A' for Active; 'I' for Inactive)
REMARK    1  A    between atoms: C_3  and  N_8
REMARK    2  A    between atoms: C_5  and  C_6
REMARK                            x       y       z     vdW  Elec       q    Type
REMARK                         _______ _______ _______ _____ _____    ______ ____
ROOT
ATOM      1  N   UNL     1      45.439  80.449  39.872  0.00  0.00    -0.256 N 
ATOM      2  C   UNL     1      46.529  80.676  40.609  0.00  0.00    +0.085 A 
ATOM      3  C   UNL     1      47.328  81.804  40.386  0.00  0.00    +0.057 A 
ATOM      4  C   UNL     1      46.976  82.687  39.391  0.00  0.00    +0.176 A 
ATOM      5  N   UNL     1      45.868  82.429  38.664  0.00  0.00    -0.174 NA
ATOM      6  C   UNL     1      45.122  81.324  38.913  0.00  0.00    +0.353 A 
ATOM      7  O   UNL     1      44.095  81.164  38.177  0.00  0.00    -0.244 OA
ATOM      8  N   UNL     1      47.755  83.846  39.127  0.00  0.00    -0.107 NA
ENDROOT
BRANCH   1  11
ATOM      9  C   UNL     1      44.239  77.025  39.979  0.00  0.00    +0.037 C 
ATOM     10  C   UNL     1      45.128  78.075  39.344  0.00  0.00    +0.057 C 
ATOM     11  C   UNL     1      44.633  79.319  40.091  0.00  0.00    +0.208 C 
ATOM     12  O   UNL     1      44.654  78.823  41.398  0.00  0.00    -0.335 OA
ATOM     13  C   UNL     1      43.796  77.732  41.253  0.00  0.00    +0.150 C 
BRANCH  13  14
ATOM     14  C   UNL     1      43.908  76.756  42.394  0.00  0.00    +0.211 C 
ATOM     15  O   UNL     1      45.269  76.573  42.644  0.00  0.00    -0.218 OA
ENDBRANCH  13  14
ENDBRANCH   1  11
TORSDOF 2
