REMARK  Name = Zanamivir
REMARK  6 active torsions:
REMARK  status: ('A' for Active; 'I' for Inactive)
REMARK    1  A    between atoms: N_4  and  C_5
REMARK    2  A    between atoms: C_6  and  N_20
REMARK    3  A    between atoms: C_8  and  C_17
REMARK    4  A    between atoms: C_10  and  C_11
REMARK    5  A    between atoms: C_11  and  C_12
REMARK    6  A    between atoms: C_12  and  C_13
REMARK                            x       y       z     vdW  Elec       q    Type
REMARK                         _______ _______ _______ _____ _____    ______ ____
ROOT
ATOM      1  C   UNL     1      47.714  80.785  41.986  0.00  0.00    +0.164 C 
ATOM      2  C   UNL     1      47.401  82.265  41.847  0.00  0.00    +0.155 C 
ATOM      3  C   UNL     1      46.719  82.534  40.577  0.00  0.00    +0.043 C 
ATOM      4  C   UNL     1      46.096  81.619  39.853  0.00  0.00    +0.216 C 
ATOM      5  O   UNL     1      46.090  80.330  40.330  0.00  0.00    -0.468 OA
ATOM      6  C   UNL     1      46.511  79.976  41.632  0.00  0.00    +0.221 C 
ENDROOT
BRANCH   1  10
ATOM      7  C   UNL     1      50.067  80.606  45.028  0.00  0.00    +0.096 C 
ATOM      8  C   UNL     1      49.630  80.564  43.604  0.00  0.00    +0.242 C 
ATOM      9  O   UNL     1      50.469  80.604  42.658  0.00  0.00    -0.273 OA
ATOM     10  N   UNL     1      48.243  80.477  43.293  0.00  0.00    -0.201 NA
ENDBRANCH   1  10
BRANCH   2  11
ATOM     11  N   UNL     1      48.676  82.956  41.820  0.00  0.00    -0.229 NA
ATOM     12  C   UNL     1      48.911  84.024  42.496  0.00  0.00    +0.285 C 
ATOM     13  N   UNL     1      50.220  84.555  42.452  0.00  0.00    -0.104 NA
ATOM     14  N   UNL     1      47.949  84.706  43.285  0.00  0.00    -0.104 NA
ENDBRANCH   2  11
BRANCH   4  15
ATOM     15  C   UNL     1      45.431  81.950  38.590  0.00  0.00    +0.421 C 
ATOM     16  O   UNL     1      45.706  82.992  37.944  0.00  0.00    -0.237 OA
ATOM     17  O   UNL     1      44.462  81.109  38.060  0.00  0.00    -0.237 OA
ENDBRANCH   4  15
BRANCH   6  18
ATOM     18  C   UNL     1      46.700  78.509  41.683  0.00  0.00    +0.226 C 
ATOM     19  O   UNL     1      46.852  78.152  43.044  0.00  0.00    -0.216 OA
BRANCH  18  20
ATOM     20  C   UNL     1      45.554  77.698  41.160  0.00  0.00    +0.219 C 
ATOM     21  O   UNL     1      44.422  77.758  41.944  0.00  0.00    -0.217 OA
BRANCH  20  22
ATOM     22  C   UNL     1      46.003  76.231  41.175  0.00  0.00    +0.218 C 
ATOM     23  O   UNL     1      44.953  75.495  40.580  0.00  0.00    -0.217 OA
ENDBRANCH  20  22
ENDBRANCH  18  20
ENDBRANCH   6  18
TORSDOF 6
