REMARK  Name = Zanubrutinib
REMARK  6 active torsions:
REMARK  status: ('A' for Active; 'I' for Inactive)
REMARK    1  A    between atoms: C_2  and  C_3
REMARK    2  A    between atoms: C_8  and  C_11
REMARK    3  A    between atoms: C_16  and  C_33
REMARK    4  A    between atoms: C_17  and  C_20
REMARK    5  A    between atoms: C_23  and  O_26
REMARK    6  A    between atoms: O_26  and  C_27
REMARK                            x       y       z     vdW  Elec       q    Type
REMARK                         _______ _______ _______ _____ _____    ______ ____
ROOT
ATOM      1  C   UNL     1      44.288  77.962  40.502  0.00  0.00    +0.108 C 
ATOM      2  C   UNL     1      43.583  77.632  39.249  0.00  0.00    +0.048 C 
ATOM      3  C   UNL     1      43.058  78.788  38.472  0.00  0.00    +0.116 C 
ATOM      4  N   UNL     1      44.158  79.710  38.253  0.00  0.00    -0.220 NA
ATOM      5  C   UNL     1      45.005  79.981  39.373  0.00  0.00    +0.150 A 
ATOM      6  C   UNL     1      45.893  81.025  39.665  0.00  0.00    +0.109 A 
ATOM      7  C   UNL     1      46.467  80.804  40.889  0.00  0.00    +0.108 A 
ATOM      8  N   UNL     1      45.928  79.638  41.333  0.00  0.00    -0.168 NA
ATOM      9  N   UNL     1      45.078  79.172  40.435  0.00  0.00    -0.238 N 
ENDROOT
BRANCH   1  15
ATOM     10  C   UNL     1      43.726  73.458  43.089  0.00  0.00    +0.249 C 
ATOM     11  O   UNL     1      43.037  73.637  44.202  0.00  0.00    -0.270 OA
ATOM     12  N   UNL     1      44.413  74.574  42.614  0.00  0.00    -0.276 N 
ATOM     13  C   UNL     1      44.409  75.857  43.193  0.00  0.00    +0.094 C 
ATOM     14  C   UNL     1      45.356  76.832  42.493  0.00  0.00    +0.023 C 
ATOM     15  C   UNL     1      45.205  76.875  41.014  0.00  0.00    +0.026 C 
ATOM     16  C   UNL     1      44.900  75.517  40.415  0.00  0.00    +0.023 C 
ATOM     17  C   UNL     1      45.223  74.407  41.391  0.00  0.00    +0.094 C 
BRANCH  10  19
ATOM     18  C   UNL     1      43.811  70.991  43.142  0.00  0.00    +0.005 C 
ATOM     19  C   UNL     1      43.644  72.136  42.565  0.00  0.00    +0.058 C 
ENDBRANCH  10  19
ENDBRANCH   1  15
BRANCH   7  20
ATOM     20  C   UNL     1      47.431  81.581  41.651  0.00  0.00    +0.020 A 
ATOM     21  C   UNL     1      47.281  82.914  41.932  0.00  0.00    +0.005 A 
ATOM     22  C   UNL     1      48.201  83.649  42.690  0.00  0.00    +0.038 A 
ATOM     23  C   UNL     1      49.310  83.025  43.185  0.00  0.00    +0.145 A 
ATOM     24  C   UNL     1      49.499  81.678  42.923  0.00  0.00    +0.038 A 
ATOM     25  C   UNL     1      48.584  80.978  42.177  0.00  0.00    +0.005 A 
BRANCH  23  26
ATOM     26  O   UNL     1      50.238  83.739  43.942  0.00  0.00    -0.453 OA
BRANCH  26  27
ATOM     27  C   UNL     1      51.595  83.681  43.688  0.00  0.00    +0.145 A 
ATOM     28  C   UNL     1      51.987  83.642  42.360  0.00  0.00    +0.037 A 
ATOM     29  C   UNL     1      53.340  83.583  42.039  0.00  0.00    +0.003 A 
ATOM     30  C   UNL     1      54.297  83.563  43.032  0.00  0.00    +0.000 A 
ATOM     31  C   UNL     1      53.865  83.603  44.336  0.00  0.00    +0.003 A 
ATOM     32  C   UNL     1      52.542  83.662  44.696  0.00  0.00    +0.037 A 
ENDBRANCH  26  27
ENDBRANCH  23  26
ENDBRANCH   7  20
BRANCH   6  33
ATOM     33  C   UNL     1      46.098  82.143  38.761  0.00  0.00    +0.288 C 
ATOM     34  O   UNL     1      45.190  82.558  37.989  0.00  0.00    -0.267 OA
ATOM     35  N   UNL     1      47.358  82.792  38.749  0.00  0.00    -0.084 NA
ENDBRANCH   6  33
TORSDOF 6
