REMARK  Name = Zavegepant
REMARK  6 active torsions:
REMARK  status: ('A' for Active; 'I' for Inactive)
REMARK    1  A    between atoms: C_4  and  C_11
REMARK    2  A    between atoms: C_11  and  C_12
REMARK    3  A    between atoms: C_12  and  C_13
REMARK    4  A    between atoms: C_12  and  N_28
REMARK    5  A    between atoms: N_18  and  C_21
REMARK    6  A    between atoms: C_34  and  C_37
REMARK                            x       y       z     vdW  Elec       q    Type
REMARK                         _______ _______ _______ _____ _____    ______ ____
ROOT
ATOM      1  C   UNL     1      45.542  81.116  40.617  0.00  0.00    +0.177 C 
ENDROOT
BRANCH   1   2
ATOM      2  N   UNL     1      45.125  79.816  41.179  0.00  0.00    -0.181 NA
ATOM      3  C   UNL     1      45.896  78.638  41.029  0.00  0.00    +0.324 C 
ATOM      4  O   UNL     1      47.094  78.741  40.635  0.00  0.00    -0.251 OA
ATOM      5  N   UNL     1      45.313  77.393  41.321  0.00  0.00    -0.263 N 
ATOM      6  C   UNL     1      46.116  76.190  41.252  0.00  0.00    +0.095 C 
ATOM      7  C   UNL     1      45.223  74.959  41.306  0.00  0.00    +0.026 C 
ATOM      8  C   UNL     1      44.452  74.934  42.632  0.00  0.00    +0.030 C 
ATOM      9  C   UNL     1      43.899  76.267  42.882  0.00  0.00    +0.026 C 
ATOM     10  C   UNL     1      43.931  77.213  41.699  0.00  0.00    +0.095 C 
BRANCH   8  11
ATOM     11  C   UNL     1      43.534  73.809  42.558  0.00  0.00    +0.035 A 
ATOM     12  C   UNL     1      43.292  73.279  41.292  0.00  0.00    +0.002 A 
ATOM     13  C   UNL     1      42.428  72.216  41.142  0.00  0.00    +0.018 A 
ATOM     14  C   UNL     1      42.166  71.664  39.889  0.00  0.00    +0.001 A 
ATOM     15  C   UNL     1      41.297  70.599  39.762  0.00  0.00    +0.000 A 
ATOM     16  C   UNL     1      40.670  70.056  40.857  0.00  0.00    +0.002 A 
ATOM     17  C   UNL     1      40.920  70.594  42.116  0.00  0.00    +0.019 A 
ATOM     18  C   UNL     1      41.790  71.659  42.236  0.00  0.00    +0.084 A 
ATOM     19  N   UNL     1      42.027  72.172  43.448  0.00  0.00    -0.208 NA
ATOM     20  C   UNL     1      42.869  73.210  43.595  0.00  0.00    +0.275 A 
ATOM     21  O   UNL     1      43.059  73.652  44.732  0.00  0.00    -0.266 OA
ENDBRANCH   8  11
ENDBRANCH   1   2
BRANCH   1  22
ATOM     22  C   UNL     1      44.853  81.200  39.309  0.00  0.00    +0.246 C 
ATOM     23  O   UNL     1      44.777  82.350  38.738  0.00  0.00    -0.273 OA
ATOM     24  N   UNL     1      44.267  80.136  38.608  0.00  0.00    -0.275 N 
ATOM     25  C   UNL     1      43.915  80.249  37.219  0.00  0.00    +0.111 C 
ATOM     26  C   UNL     1      42.475  79.680  37.145  0.00  0.00    +0.094 C 
ATOM     27  N   UNL     1      42.621  78.266  37.297  0.00  0.00    -0.271 NA
ATOM     28  C   UNL     1      43.467  77.831  38.356  0.00  0.00    +0.094 C 
ATOM     29  C   UNL     1      43.990  78.887  39.267  0.00  0.00    +0.111 C 
BRANCH  27  30
ATOM     30  C   UNL     1      41.347  77.591  37.228  0.00  0.00    +0.060 C 
ATOM     31  C   UNL     1      40.337  78.164  38.197  0.00  0.00    +0.033 C 
ATOM     32  C   UNL     1      39.049  77.387  38.109  0.00  0.00    +0.074 C 
ATOM     33  N   UNL     1      39.219  75.971  38.156  0.00  0.00    -0.271 NA
ATOM     34  C   UNL     1      40.561  75.532  38.347  0.00  0.00    +0.074 C 
ATOM     35  C   UNL     1      41.522  76.115  37.330  0.00  0.00    +0.033 C 
ATOM     36  C   UNL     1      38.490  75.238  37.160  0.00  0.00    +0.090 C 
ENDBRANCH  27  30
ENDBRANCH   1  22
BRANCH   1  37
ATOM     37  C   UNL     1      47.044  81.029  40.382  0.00  0.00    +0.057 C 
BRANCH  37  41
ATOM     38  C   UNL     1      47.393  84.614  43.833  0.00  0.00    +0.033 C 
ATOM     39  C   UNL     1      48.038  83.655  42.879  0.00  0.00    -0.003 A 
ATOM     40  C   UNL     1      47.293  82.830  42.089  0.00  0.00    -0.007 A 
ATOM     41  C   UNL     1      47.851  81.939  41.203  0.00  0.00    -0.020 A 
ATOM     42  C   UNL     1      49.254  81.910  41.141  0.00  0.00    -0.001 A 
ATOM     43  C   UNL     1      50.024  82.726  41.921  0.00  0.00    +0.040 A 
ATOM     44  C   UNL     1      49.415  83.602  42.793  0.00  0.00    +0.100 A 
ATOM     45  N   UNL     1      50.377  84.294  43.448  0.00  0.00    -0.148 NA
ATOM     46  N   UNL     1      51.571  83.876  43.008  0.00  0.00    -0.146 NA
ATOM     47  C   UNL     1      51.372  82.914  42.072  0.00  0.00    +0.124 A 
ENDBRANCH  37  41
ENDBRANCH   1  37
TORSDOF 6
