REMARK  Name = Zidovudine
REMARK  3 active torsions:
REMARK  status: ('A' for Active; 'I' for Inactive)
REMARK    1  A    between atoms: N_4  and  C_10
REMARK    2  A    between atoms: C_12  and  N_17
REMARK    3  A    between atoms: C_13  and  C_15
REMARK                            x       y       z     vdW  Elec       q    Type
REMARK                         _______ _______ _______ _____ _____    ______ ____
ROOT
ATOM      1  C   UNL     1      45.026  79.452  39.800  0.00  0.00    +0.210 C 
ATOM      2  C   UNL     1      45.699  78.159  40.198  0.00  0.00    +0.084 C 
ATOM      3  C   UNL     1      44.812  77.675  41.315  0.00  0.00    +0.173 C 
ATOM      4  C   UNL     1      43.485  78.287  40.917  0.00  0.00    +0.175 C 
ATOM      5  O   UNL     1      43.872  79.565  40.528  0.00  0.00    -0.333 OA
ENDROOT
BRANCH   1   9
ATOM      6  C   UNL     1      48.809  81.580  42.227  0.00  0.00    +0.038 C 
ATOM      7  C   UNL     1      47.749  81.559  41.166  0.00  0.00    +0.053 A 
ATOM      8  C   UNL     1      46.892  80.498  41.000  0.00  0.00    +0.082 A 
ATOM      9  N   UNL     1      45.962  80.534  40.033  0.00  0.00    -0.256 N 
ATOM     10  C   UNL     1      45.860  81.617  39.210  0.00  0.00    +0.354 A 
ATOM     11  O   UNL     1      45.001  81.683  38.294  0.00  0.00    -0.244 OA
ATOM     12  N   UNL     1      46.689  82.665  39.356  0.00  0.00    -0.153 NA
ATOM     13  C   UNL     1      47.628  82.641  40.324  0.00  0.00    +0.280 A 
ATOM     14  O   UNL     1      48.429  83.615  40.491  0.00  0.00    -0.265 OA
ENDBRANCH   1   9
BRANCH   3  15
ATOM     15  N   UNL     1      44.745  76.234  41.388  0.00  0.00    -0.097 NA
ATOM     16  N   UNL     1      45.284  75.600  40.468  0.00  0.00    -0.166 NA
ATOM     17  N   UNL     1      45.618  74.879  39.517  0.00  0.00    +0.068 NA
ENDBRANCH   3  15
BRANCH   4  18
ATOM     18  C   UNL     1      42.947  77.478  39.761  0.00  0.00    +0.214 C 
ATOM     19  O   UNL     1      41.856  76.700  40.103  0.00  0.00    -0.218 OA
ENDBRANCH   4  18
TORSDOF 3
