REMARK  Name = Zileuton
REMARK  2 active torsions:
REMARK  status: ('A' for Active; 'I' for Inactive)
REMARK    1  A    between atoms: C_2  and  C_3
REMARK    2  A    between atoms: C_2  and  N_12
REMARK                            x       y       z     vdW  Elec       q    Type
REMARK                         _______ _______ _______ _____ _____    ______ ____
ROOT
ATOM      1  C   UNL     1      45.379  79.285  39.832  0.00  0.00    +0.028 A 
ATOM      2  C   UNL     1      44.778  78.140  40.274  0.00  0.00    +0.004 A 
ATOM      3  C   UNL     1      43.586  77.814  39.734  0.00  0.00    +0.006 A 
ATOM      4  C   UNL     1      42.789  76.691  40.032  0.00  0.00    +0.001 A 
ATOM      5  C   UNL     1      41.590  76.464  39.415  0.00  0.00    +0.000 A 
ATOM      6  C   UNL     1      41.094  77.324  38.465  0.00  0.00    +0.001 A 
ATOM      7  C   UNL     1      41.850  78.428  38.153  0.00  0.00    +0.006 A 
ATOM      8  C   UNL     1      43.081  78.661  38.788  0.00  0.00    +0.029 A 
ATOM      9  S   UNL     1      44.273  79.877  38.679  0.00  0.00    -0.090 S 
ENDROOT
BRANCH   1  11
ATOM     10  C   UNL     1      47.082  79.274  41.620  0.00  0.00    +0.030 C 
ATOM     11  C   UNL     1      46.702  79.862  40.275  0.00  0.00    +0.136 C 
BRANCH  11  12
ATOM     12  N   UNL     1      46.686  81.284  40.275  0.00  0.00    -0.114 N 
ATOM     13  C   UNL     1      46.489  82.007  39.082  0.00  0.00    +0.368 C 
ATOM     14  O   UNL     1      46.098  81.409  38.054  0.00  0.00    -0.247 OA
ATOM     15  N   UNL     1      46.718  83.404  38.998  0.00  0.00    -0.067 NA
ATOM     16  O   UNL     1      46.860  81.965  41.425  0.00  0.00    -0.091 OA
ENDBRANCH  11  12
ENDBRANCH   1  11
TORSDOF 2
