REMARK  Name = Zinc_hyaluronate
REMARK  38 active torsions:
REMARK  status: ('A' for Active; 'I' for Inactive)
REMARK    1  A    between atoms: C_2  and  C_3
REMARK    2  A    between atoms: C_3  and  C_4
REMARK    3  A    between atoms: C_4  and  C_5
REMARK    4  A    between atoms: C_5  and  C_6
REMARK    5  A    between atoms: C_6  and  C_7
REMARK    6  A    between atoms: C_7  and  C_8
REMARK    7  A    between atoms: C_8  and  C_9
REMARK    8  A    between atoms: C_9  and  C_10
REMARK    9  A    between atoms: C_10  and  C_11
REMARK   10  A    between atoms: C_11  and  C_12
REMARK   11  A    between atoms: C_12  and  C_13
REMARK   12  A    between atoms: C_12  and  O_21
REMARK   13  A    between atoms: C_13  and  C_14
REMARK   14  A    between atoms: C_14  and  C_15
REMARK   15  A    between atoms: C_15  and  C_16
REMARK   16  A    between atoms: C_16  and  C_17
REMARK   17  A    between atoms: C_17  and  C_18
REMARK   18  A    between atoms: C_18  and  C_19
REMARK   19  A    between atoms: O_21  and  C_22
REMARK   20  A    between atoms: C_22  and  C_24
REMARK   21  A    between atoms: C_24  and  C_25
REMARK   22  A    between atoms: C_25  and  C_26
REMARK   23  A    between atoms: C_26  and  C_27
REMARK   24  A    between atoms: C_27  and  C_28
REMARK   25  A    between atoms: C_28  and  C_29
REMARK   26  A    between atoms: C_29  and  C_30
REMARK   27  A    between atoms: C_30  and  C_31
REMARK   28  A    between atoms: C_31  and  C_32
REMARK   29  A    between atoms: C_32  and  C_33
REMARK   30  A    between atoms: C_33  and  C_34
REMARK   31  A    between atoms: C_34  and  C_35
REMARK   32  A    between atoms: C_36  and  C_37
REMARK   33  A    between atoms: C_37  and  C_38
REMARK   34  A    between atoms: C_38  and  C_39
REMARK   35  A    between atoms: C_39  and  C_40
REMARK   36  A    between atoms: C_40  and  C_41
REMARK   37  A    between atoms: C_41  and  C_42
REMARK   38  A    between atoms: C_42  and  C_43
REMARK                            x       y       z     vdW  Elec       q    Type
REMARK                         _______ _______ _______ _____ _____    ______ ____
ROOT
ATOM      1  C   UNL     1      52.776  81.371  46.363  0.00  0.00    +0.317 C 
ATOM      2  O   UNL     1      52.784  82.442  47.012  0.00  0.00    -0.250 OA
ENDROOT
BRANCH   1   3
ATOM      3  O   UNL     1      53.829  80.496  46.511  0.00  0.00    -0.452 OA
BRANCH   3   4
ATOM      4  C   UNL     1      53.656  79.289  47.286  0.00  0.00    +0.169 C 
BRANCH   4   5
ATOM      5  C   UNL     1      54.883  78.406  47.010  0.00  0.00    +0.044 C 
BRANCH   5   6
ATOM      6  C   UNL     1      54.723  77.067  47.575  0.00  0.00    +0.004 C 
BRANCH   6   7
ATOM      7  C   UNL     1      55.289  75.872  46.956  0.00  0.00    +0.000 C 
BRANCH   7   8
ATOM      8  C   UNL     1      55.478  74.605  47.630  0.00  0.00    +0.000 C 
BRANCH   8   9
ATOM      9  C   UNL     1      54.379  73.930  48.352  0.00  0.00    +0.000 C 
BRANCH   9  10
ATOM     10  C   UNL     1      53.233  73.477  47.519  0.00  0.00    +0.000 C 
BRANCH  10  11
ATOM     11  C   UNL     1      53.435  72.181  46.801  0.00  0.00    +0.000 C 
BRANCH  11  12
ATOM     12  C   UNL     1      53.115  70.957  47.596  0.00  0.00    +0.000 C 
BRANCH  12  13
ATOM     13  C   UNL     1      53.236  69.695  46.764  0.00  0.00    +0.000 C 
BRANCH  13  15
ATOM     14  C   UNL     1      53.141  67.257  46.788  0.00  0.00    +0.000 C 
ATOM     15  C   UNL     1      53.129  68.506  47.675  0.00  0.00    +0.000 C 
ENDBRANCH  13  15
ENDBRANCH  12  13
ENDBRANCH  11  12
ENDBRANCH  10  11
ENDBRANCH   9  10
ENDBRANCH   8   9
ENDBRANCH   7   8
ENDBRANCH   6   7
ENDBRANCH   5   6
ENDBRANCH   4   5
BRANCH   4  16
ATOM     16  C   UNL     1      53.503  79.634  48.734  0.00  0.00    +0.044 C 
BRANCH  16  17
ATOM     17  C   UNL     1      52.867  78.486  49.529  0.00  0.00    +0.004 C 
BRANCH  17  18
ATOM     18  C   UNL     1      52.790  78.861  50.957  0.00  0.00    +0.000 C 
BRANCH  18  19
ATOM     19  C   UNL     1      53.465  78.073  51.982  0.00  0.00    +0.000 C 
BRANCH  19  20
ATOM     20  C   UNL     1      53.297  78.343  53.409  0.00  0.00    +0.000 C 
BRANCH  20  21
ATOM     21  C   UNL     1      52.108  77.789  54.090  0.00  0.00    +0.000 C 
BRANCH  21  22
ATOM     22  C   UNL     1      52.590  76.511  54.860  0.00  0.00    +0.000 C 
ATOM     23  C   UNL     1      51.385  75.962  55.547  0.00  0.00    +0.000 C 
ENDBRANCH  21  22
ENDBRANCH  20  21
ENDBRANCH  19  20
ENDBRANCH  18  19
ENDBRANCH  17  18
ENDBRANCH  16  17
ENDBRANCH   4  16
ENDBRANCH   3   4
ENDBRANCH   1   3
BRANCH   1  24
ATOM     24  C   UNL     1      51.624  81.080  45.451  0.00  0.00    +0.110 C 
BRANCH  24  25
ATOM     25  C   UNL     1      51.888  81.806  44.150  0.00  0.00    +0.012 C 
BRANCH  25  26
ATOM     26  C   UNL     1      50.857  81.564  43.099  0.00  0.00    +0.001 C 
BRANCH  26  27
ATOM     27  C   UNL     1      50.173  82.786  42.583  0.00  0.00    +0.000 C 
BRANCH  27  28
ATOM     28  C   UNL     1      49.309  82.507  41.375  0.00  0.00    +0.000 C 
BRANCH  28  29
ATOM     29  C   UNL     1      48.389  81.377  41.531  0.00  0.00    +0.000 C 
BRANCH  29  30
ATOM     30  C   UNL     1      46.950  81.557  41.699  0.00  0.00    +0.000 C 
BRANCH  30  31
ATOM     31  C   UNL     1      45.991  81.188  40.633  0.00  0.00    +0.000 C 
BRANCH  31  32
ATOM     32  C   UNL     1      44.666  80.662  41.068  0.00  0.00    +0.000 C 
BRANCH  32  33
ATOM     33  C   UNL     1      43.743  80.475  39.855  0.00  0.00    +0.005 C 
BRANCH  33  34
ATOM     34  C   UNL     1      44.383  79.461  38.940  0.00  0.00    +0.026 C 
BRANCH  34  35
ATOM     35  C   UNL     1      43.515  78.307  38.713  0.00  0.00    -0.031 C 
ATOM     36  C   UNL     1      42.659  78.176  37.751  0.00  0.00    -0.031 C 
BRANCH  36  37
ATOM     37  C   UNL     1      42.021  76.925  37.327  0.00  0.00    +0.026 C 
BRANCH  37  38
ATOM     38  C   UNL     1      40.557  76.876  37.655  0.00  0.00    +0.005 C 
BRANCH  38  39
ATOM     39  C   UNL     1      39.682  76.502  36.512  0.00  0.00    +0.000 C 
BRANCH  39  40
ATOM     40  C   UNL     1      39.064  75.147  36.676  0.00  0.00    +0.000 C 
BRANCH  40  41
ATOM     41  C   UNL     1      38.175  74.843  35.484  0.00  0.00    +0.000 C 
BRANCH  41  42
ATOM     42  C   UNL     1      37.560  73.480  35.541  0.00  0.00    +0.000 C 
BRANCH  42  43
ATOM     43  C   UNL     1      36.058  73.526  35.357  0.00  0.00    +0.000 C 
ATOM     44  C   UNL     1      35.480  72.109  35.352  0.00  0.00    +0.000 C 
ENDBRANCH  42  43
ENDBRANCH  41  42
ENDBRANCH  40  41
ENDBRANCH  39  40
ENDBRANCH  38  39
ENDBRANCH  37  38
ENDBRANCH  36  37
ENDBRANCH  34  35
ENDBRANCH  33  34
ENDBRANCH  32  33
ENDBRANCH  31  32
ENDBRANCH  30  31
ENDBRANCH  29  30
ENDBRANCH  28  29
ENDBRANCH  27  28
ENDBRANCH  26  27
ENDBRANCH  25  26
ENDBRANCH  24  25
ENDBRANCH   1  24
TORSDOF 38
