REMARK  Name = Zinforo
REMARK  10 active torsions:
REMARK  status: ('A' for Active; 'I' for Inactive)
REMARK    1  A    between atoms: C_2  and  O_3
REMARK    2  A    between atoms: O_3  and  N_4
REMARK    3  A    between atoms: C_5  and  C_6
REMARK    4  A    between atoms: C_5  and  C_16
REMARK    5  A    between atoms: N_11  and  P_12
REMARK    6  A    between atoms: N_18  and  CA_19
REMARK    7  A    between atoms: CA_24  and  C_41
REMARK    8  A    between atoms: C_25  and  S_28
REMARK    9  A    between atoms: S_28  and  C_29
REMARK   10  A    between atoms: C_31  and  C_34
REMARK                            x       y       z     vdW  Elec       q    Type
REMARK                         _______ _______ _______ _____ _____    ______ ____
ROOT
ATOM      1  CA  UNL     1      48.570  80.682  39.837  0.00  0.00    +0.201 C 
ATOM      2  C   UNL     1      47.398  79.967  39.200  0.00  0.00    +0.157 C 
ATOM      3  N   UNL     1      46.630  81.183  39.387  0.00  0.00    -0.241 N 
ATOM      4  C   UNL     1      47.824  81.924  39.659  0.00  0.00    +0.253 C 
ATOM      5  O   UNL     1      48.119  83.140  39.722  0.00  0.00    -0.273 OA
ATOM      6  CA  UNL     1      45.214  81.180  39.244  0.00  0.00    +0.138 C 
ATOM      7  C   UNL     1      44.418  80.188  39.563  0.00  0.00    +0.040 C 
ATOM      8  C   UNL     1      44.869  78.912  40.128  0.00  0.00    +0.093 C 
ATOM      9  S   UNL     1      46.646  78.685  40.181  0.00  0.00    -0.113 S 
ENDROOT
BRANCH   1  12
ATOM     10  C   UNL     1      50.107  79.740  41.593  0.00  0.00    +0.289 C 
ATOM     11  O   UNL     1      50.947  79.534  40.670  0.00  0.00    -0.266 OA
ATOM     12  N   UNL     1      48.873  80.320  41.206  0.00  0.00    -0.190 NA
BRANCH  10  14
ATOM     13  N   UNL     1      51.609  78.837  43.157  0.00  0.00    -0.075 NA
ATOM     14  C   UNL     1      50.449  79.380  42.941  0.00  0.00    +0.210 C 
BRANCH  14  15
ATOM     15  C   UNL     1      49.532  79.634  44.089  0.00  0.00    +0.197 A 
ATOM     16  N   UNL     1      48.859  80.791  44.159  0.00  0.00    -0.185 NA
ATOM     17  S   UNL     1      47.991  80.633  45.589  0.00  0.00    +0.051 S 
ATOM     18  C   UNL     1      48.536  79.072  46.040  0.00  0.00    +0.207 A 
ATOM     19  N   UNL     1      49.361  78.776  45.044  0.00  0.00    -0.200 NA
ATOM     20  N   UNL     1      48.184  78.302  47.194  0.00  0.00    -0.114 NA
BRANCH  20  21
ATOM     21  P   UNL     1      48.834  76.739  47.444  0.00  0.00    +0.502 P 
ATOM     22  O   UNL     1      47.738  75.699  47.702  0.00  0.00    -0.230 OA
ATOM     23  O   UNL     1      49.888  76.694  48.794  0.00  0.00    -0.121 OA
ATOM     24  O   UNL     1      49.687  76.233  46.090  0.00  0.00    -0.121 OA
ENDBRANCH  20  21
ENDBRANCH  14  15
BRANCH  13  25
ATOM     25  O   UNL     1      52.579  78.920  42.165  0.00  0.00    -0.377 OA
BRANCH  25  27
ATOM     26  C   UNL     1      53.542  76.801  42.686  0.00  0.00    +0.054 C 
ATOM     27  C   UNL     1      53.810  78.275  42.463  0.00  0.00    +0.239 C 
ENDBRANCH  25  27
ENDBRANCH  13  25
ENDBRANCH  10  14
ENDBRANCH   1  12
BRANCH   6  28
ATOM     28  C   UNL     1      44.639  82.434  38.693  0.00  0.00    +0.401 C 
ATOM     29  O   UNL     1      45.363  83.450  38.692  0.00  0.00    -0.239 OA
ATOM     30  OXT UNL     1      43.362  82.526  38.189  0.00  0.00    -0.239 OA
ENDBRANCH   6  28
BRANCH   7  31
ATOM     31  S   UNL     1      42.661  80.406  39.238  0.00  0.00    -0.064 S 
BRANCH  31  32
ATOM     32  C   UNL     1      41.784  78.856  39.611  0.00  0.00    +0.140 A 
ATOM     33  N   UNL     1      41.566  77.850  38.783  0.00  0.00    -0.232 NA
ATOM     34  C   UNL     1      40.919  76.802  39.190  0.00  0.00    +0.089 A 
ATOM     35  C   UNL     1      40.487  76.802  40.495  0.00  0.00    +0.056 A 
ATOM     36  S   UNL     1      41.046  78.320  41.048  0.00  0.00    -0.059 S 
BRANCH  34  37
ATOM     37  C   UNL     1      40.661  75.633  38.298  0.00  0.00    +0.021 A 
ATOM     38  C   UNL     1      39.970  74.533  38.740  0.00  0.00    +0.020 A 
ATOM     39  C   UNL     1      39.762  73.453  37.873  0.00  0.00    +0.076 A 
ATOM     40  N   UNL     1      40.216  73.451  36.615  0.00  0.00    -0.323 N 
ATOM     41  C   UNL     1      40.895  74.535  36.184  0.00  0.00    +0.076 A 
ATOM     42  C   UNL     1      41.121  75.617  37.004  0.00  0.00    +0.020 A 
ATOM     43  C   UNL     1      40.002  72.321  35.713  0.00  0.00    +0.131 C 
ENDBRANCH  34  37
ENDBRANCH  31  32
ENDBRANCH   7  31
TORSDOF 10
REMARK  Name = Zinforo
REMARK  10 active torsions:
REMARK  status: ('A' for Active; 'I' for Inactive)
REMARK    1  A    between atoms: C_2  and  O_3
REMARK    2  A    between atoms: O_3  and  N_4
REMARK    3  A    between atoms: C_5  and  C_6
REMARK    4  A    between atoms: C_5  and  C_16
REMARK    5  A    between atoms: N_11  and  P_12
REMARK    6  A    between atoms: N_18  and  CA_19
REMARK    7  A    between atoms: CA_24  and  C_41
REMARK    8  A    between atoms: C_25  and  S_28
REMARK    9  A    between atoms: S_28  and  C_29
REMARK   10  A    between atoms: C_31  and  C_34
REMARK                            x       y       z     vdW  Elec       q    Type
REMARK                         _______ _______ _______ _____ _____    ______ ____
ROOT
ATOM      1  C   UNL     1      46.794  78.313  42.114  0.00  0.00    +0.126 C 
ATOM      2  C   UNL     1      45.981  77.868  40.955  0.00  0.00    +0.365 C 
ATOM      3  O   UNL     1      46.259  76.796  40.378  0.00  0.00    -0.246 OA
ATOM      4  O   UNL     1      44.904  78.586  40.459  0.00  0.00    -0.246 OA
ENDROOT
TORSDOF 0
