REMARK  Name = Zipeprol
REMARK  9 active torsions:
REMARK  status: ('A' for Active; 'I' for Inactive)
REMARK    1  A    between atoms: O_2  and  C_3
REMARK    2  A    between atoms: C_3  and  C_4
REMARK    3  A    between atoms: C_3  and  C_23
REMARK    4  A    between atoms: C_4  and  N_5
REMARK    5  A    between atoms: N_8  and  C_11
REMARK    6  A    between atoms: C_11  and  C_12
REMARK    7  A    between atoms: C_12  and  C_13
REMARK    8  A    between atoms: C_13  and  C_14
REMARK    9  A    between atoms: C_13  and  O_20
REMARK                            x       y       z     vdW  Elec       q    Type
REMARK                         _______ _______ _______ _____ _____    ______ ____
ROOT
ATOM      1  N   UNL     1      44.114  79.049  38.661  0.00  0.00    -0.268 NA
ATOM      2  C   UNL     1      44.301  80.503  38.630  0.00  0.00    +0.090 C 
ATOM      3  C   UNL     1      45.808  80.752  38.733  0.00  0.00    +0.090 C 
ATOM      4  N   UNL     1      46.119  80.510  40.095  0.00  0.00    -0.268 NA
ATOM      5  C   UNL     1      45.597  79.328  40.635  0.00  0.00    +0.090 C 
ATOM      6  C   UNL     1      45.159  78.441  39.479  0.00  0.00    +0.090 C 
ENDROOT
BRANCH   1   7
ATOM      7  C   UNL     1      42.802  78.745  39.228  0.00  0.00    +0.107 C 
BRANCH   7   8
ATOM      8  C   UNL     1      42.700  77.261  39.428  0.00  0.00    +0.153 C 
BRANCH   8   9
ATOM      9  C   UNL     1      41.623  76.684  38.566  0.00  0.00    +0.006 A 
ATOM     10  C   UNL     1      41.400  75.327  38.612  0.00  0.00    -0.002 A 
ATOM     11  C   UNL     1      40.396  74.759  37.835  0.00  0.00    -0.000 A 
ATOM     12  C   UNL     1      39.611  75.537  37.011  0.00  0.00    -0.000 A 
ATOM     13  C   UNL     1      39.834  76.890  36.965  0.00  0.00    -0.000 A 
ATOM     14  C   UNL     1      40.850  77.462  37.751  0.00  0.00    -0.002 A 
ENDBRANCH   8   9
BRANCH   8  16
ATOM     15  C   UNL     1      43.351  76.163  41.347  0.00  0.00    +0.175 C 
ATOM     16  O   UNL     1      42.397  77.027  40.781  0.00  0.00    -0.348 OA
ENDBRANCH   8  16
ENDBRANCH   7   8
ENDBRANCH   1   7
BRANCH   4  17
ATOM     17  C   UNL     1      46.654  81.513  40.876  0.00  0.00    +0.108 C 
BRANCH  17  18
ATOM     18  C   UNL     1      47.434  82.581  40.130  0.00  0.00    +0.199 C 
ATOM     19  O   UNL     1      47.587  82.185  38.798  0.00  0.00    -0.219 OA
BRANCH  18  20
ATOM     20  C   UNL     1      48.801  82.681  40.737  0.00  0.00    +0.169 C 
BRANCH  20  21
ATOM     21  C   UNL     1      48.815  83.504  41.999  0.00  0.00    +0.007 A 
ATOM     22  C   UNL     1      49.795  83.307  42.929  0.00  0.00    -0.002 A 
ATOM     23  C   UNL     1      49.804  84.095  44.083  0.00  0.00    -0.000 A 
ATOM     24  C   UNL     1      48.831  85.047  44.255  0.00  0.00    -0.000 A 
ATOM     25  C   UNL     1      47.843  85.254  43.331  0.00  0.00    -0.000 A 
ATOM     26  C   UNL     1      47.840  84.477  42.201  0.00  0.00    -0.002 A 
ENDBRANCH  20  21
BRANCH  20  27
ATOM     27  O   UNL     1      49.772  83.193  39.872  0.00  0.00    -0.347 OA
ATOM     28  C   UNL     1      51.055  83.048  40.431  0.00  0.00    +0.175 C 
ENDBRANCH  20  27
ENDBRANCH  18  20
ENDBRANCH  17  18
ENDBRANCH   4  17
TORSDOF 9
