REMARK  Name = Zithromax
REMARK  7 active torsions:
REMARK  status: ('A' for Active; 'I' for Inactive)
REMARK    1  A    between atoms: C_2  and  C_3
REMARK    2  A    between atoms: C_12  and  O_33
REMARK    3  A    between atoms: C_14  and  O_20
REMARK    4  A    between atoms: O_20  and  C_21
REMARK    5  A    between atoms: C_23  and  O_30
REMARK    6  A    between atoms: O_33  and  C_34
REMARK    7  A    between atoms: C_36  and  N_41
REMARK                            x       y       z     vdW  Elec       q    Type
REMARK                         _______ _______ _______ _____ _____    ______ ____
ROOT
ATOM      1  C   UNL     1      48.429  74.176  42.398  0.00  0.00    +0.199 C 
ATOM      2  C   UNL     1      47.815  72.801  42.218  0.00  0.00    +0.192 C 
ATOM      3  C   UNL     1      46.632  72.782  41.271  0.00  0.00    +0.198 C 
ATOM      4  C   UNL     1      45.307  72.758  41.955  0.00  0.00    +0.091 C 
ATOM      5  N   UNL     1      44.243  73.469  41.282  0.00  0.00    -0.270 NA
ATOM      6  C   UNL     1      43.585  74.391  42.209  0.00  0.00    +0.072 C 
ATOM      7  C   UNL     1      43.457  75.797  41.631  0.00  0.00    +0.019 C 
ATOM      8  C   UNL     1      44.843  76.432  41.547  0.00  0.00    +0.034 C 
ATOM      9  C   UNL     1      44.951  77.706  42.354  0.00  0.00    +0.152 C 
ATOM     10  C   UNL     1      45.930  78.665  41.780  0.00  0.00    +0.148 C 
ATOM     11  C   UNL     1      47.044  78.089  40.957  0.00  0.00    +0.058 C 
ATOM     12  C   UNL     1      48.416  78.296  41.465  0.00  0.00    +0.131 C 
ATOM     13  C   UNL     1      49.415  77.188  41.113  0.00  0.00    +0.126 C 
ATOM     14  C   UNL     1      48.797  75.953  40.622  0.00  0.00    +0.319 C 
ATOM     15  O   UNL     1      48.872  75.725  39.349  0.00  0.00    -0.250 OA
ATOM     16  O   UNL     1      48.157  75.039  41.371  0.00  0.00    -0.450 OA
ATOM     17  C   UNL     1      50.400  76.991  42.250  0.00  0.00    +0.014 C 
ATOM     18  C   UNL     1      46.982  78.493  39.504  0.00  0.00    +0.005 C 
ATOM     19  C   UNL     1      45.394  77.322  43.754  0.00  0.00    +0.035 C 
ATOM     20  O   UNL     1      43.644  78.195  42.397  0.00  0.00    -0.223 OA
ATOM     21  C   UNL     1      42.835  75.650  40.254  0.00  0.00    +0.002 C 
ATOM     22  C   UNL     1      43.197  72.489  40.940  0.00  0.00    +0.090 C 
ATOM     23  C   UNL     1      44.892  71.337  42.302  0.00  0.00    +0.020 C 
ATOM     24  O   UNL     1      46.771  73.721  40.281  0.00  0.00    -0.219 OA
ATOM     25  C   UNL     1      48.926  71.879  41.689  0.00  0.00    +0.039 C 
ATOM     26  O   UNL     1      47.421  72.284  43.436  0.00  0.00    -0.219 OA
ENDROOT
BRANCH   1  28
ATOM     27  C   UNL     1      49.342  74.597  44.648  0.00  0.00    +0.004 C 
ATOM     28  C   UNL     1      48.122  74.707  43.771  0.00  0.00    +0.046 C 
ENDBRANCH   1  28
BRANCH  12  29
ATOM     29  O   UNL     1      48.919  79.537  41.132  0.00  0.00    -0.332 OA
BRANCH  29  30
ATOM     30  C   UNL     1      48.898  80.476  42.132  0.00  0.00    +0.238 C 
ATOM     31  C   UNL     1      50.334  81.002  42.255  0.00  0.00    +0.091 C 
ATOM     32  C   UNL     1      50.441  82.434  41.766  0.00  0.00    +0.128 C 
ATOM     33  C   UNL     1      49.590  83.347  42.606  0.00  0.00    +0.204 C 
ATOM     34  C   UNL     1      48.289  82.566  42.856  0.00  0.00    +0.150 C 
ATOM     35  O   UNL     1      48.119  81.591  41.882  0.00  0.00    -0.330 OA
ATOM     36  C   UNL     1      47.105  83.523  42.846  0.00  0.00    +0.035 C 
ATOM     37  O   UNL     1      50.081  83.687  43.825  0.00  0.00    -0.218 OA
ATOM     38  C   UNL     1      49.812  82.467  40.365  0.00  0.00    +0.033 C 
BRANCH  32  39
ATOM     39  O   UNL     1      51.751  82.771  41.644  0.00  0.00    -0.353 OA
ATOM     40  C   UNL     1      52.666  82.056  42.361  0.00  0.00    +0.174 C 
ENDBRANCH  32  39
ENDBRANCH  29  30
ENDBRANCH  12  29
BRANCH  10  41
ATOM     41  O   UNL     1      45.342  79.803  41.262  0.00  0.00    -0.328 OA
BRANCH  41  42
ATOM     42  C   UNL     1      44.950  79.810  39.982  0.00  0.00    +0.268 C 
ATOM     43  C   UNL     1      43.543  80.435  39.956  0.00  0.00    +0.222 C 
ATOM     44  C   UNL     1      42.647  79.857  38.926  0.00  0.00    +0.096 C 
ATOM     45  C   UNL     1      42.656  78.350  38.832  0.00  0.00    +0.048 C 
ATOM     46  C   UNL     1      43.781  77.861  39.715  0.00  0.00    +0.119 C 
ATOM     47  O   UNL     1      44.924  78.576  39.344  0.00  0.00    -0.331 OA
ATOM     48  C   UNL     1      44.029  76.401  39.623  0.00  0.00    +0.032 C 
ATOM     49  O   UNL     1      43.737  81.799  39.662  0.00  0.00    -0.216 OA
BRANCH  44  50
ATOM     50  N   UNL     1      42.709  80.507  37.626  0.00  0.00    -0.269 NA
ATOM     51  C   UNL     1      41.752  79.789  36.764  0.00  0.00    +0.090 C 
ATOM     52  C   UNL     1      42.094  81.834  37.800  0.00  0.00    +0.090 C 
ENDBRANCH  44  50
ENDBRANCH  41  42
ENDBRANCH  10  41
TORSDOF 7
