REMARK  Name = Zoledronate
REMARK  4 active torsions:
REMARK  status: ('A' for Active; 'I' for Inactive)
REMARK    1  A    between atoms: N_3  and  C_6
REMARK    2  A    between atoms: C_6  and  C_7
REMARK    3  A    between atoms: C_7  and  P_9
REMARK    4  A    between atoms: C_7  and  P_13
REMARK                            x       y       z     vdW  Elec       q    Type
REMARK                         _______ _______ _______ _____ _____    ______ ____
ROOT
ATOM      1  C   UNL     1      46.931  80.913  40.165  0.00  0.00    +0.338 C 
ATOM      2  O   UNL     1      47.464  79.879  39.400  0.00  0.00    -0.198 OA
ENDROOT
BRANCH   1   3
ATOM      3  P   UNL     1      46.693  82.384  39.167  0.00  0.00    +0.435 P 
ATOM      4  O   UNL     1      45.636  82.145  38.115  0.00  0.00    -0.250 OA
ATOM      5  O   UNL     1      46.329  83.703  40.152  0.00  0.00    -0.136 OA
ATOM      6  O   UNL     1      48.127  82.784  38.327  0.00  0.00    -0.136 OA
ENDBRANCH   1   3
BRANCH   1   7
ATOM      7  P   UNL     1      48.188  81.308  41.442  0.00  0.00    +0.435 P 
ATOM      8  O   UNL     1      49.417  81.776  40.674  0.00  0.00    -0.250 OA
ATOM      9  O   UNL     1      48.558  79.873  42.251  0.00  0.00    -0.136 OA
ATOM     10  O   UNL     1      47.628  82.494  42.489  0.00  0.00    -0.136 OA
ENDBRANCH   1   7
BRANCH   1  11
ATOM     11  C   UNL     1      45.703  80.489  40.914  0.00  0.00    +0.162 C 
BRANCH  11  14
ATOM     12  C   UNL     1      43.587  78.055  39.223  0.00  0.00    +0.119 A 
ATOM     13  C   UNL     1      44.596  78.381  40.135  0.00  0.00    +0.098 A 
ATOM     14  N   UNL     1      44.784  79.710  40.145  0.00  0.00    -0.304 N 
ATOM     15  C   UNL     1      43.914  80.222  39.256  0.00  0.00    +0.179 A 
ATOM     16  N   UNL     1      43.197  79.219  38.706  0.00  0.00    -0.222 NA
ENDBRANCH  11  14
ENDBRANCH   1  11
TORSDOF 4
