REMARK  Name = Zolmitriptan
REMARK  5 active torsions:
REMARK  status: ('A' for Active; 'I' for Inactive)
REMARK    1  A    between atoms: N_2  and  C_4
REMARK    2  A    between atoms: C_4  and  C_5
REMARK    3  A    between atoms: C_5  and  C_6
REMARK    4  A    between atoms: C_12  and  C_15
REMARK    5  A    between atoms: C_15  and  C_16
REMARK                            x       y       z     vdW  Elec       q    Type
REMARK                         _______ _______ _______ _____ _____    ______ ____
ROOT
ATOM      1  C   UNL     1      44.688  80.215  39.663  0.00  0.00    -0.000 A 
ATOM      2  C   UNL     1      44.390  80.744  38.449  0.00  0.00    +0.095 A 
ATOM      3  N   UNL     1      45.258  81.742  38.184  0.00  0.00    -0.244 NA
ATOM      4  C   UNL     1      46.125  81.884  39.198  0.00  0.00    +0.081 A 
ATOM      5  C   UNL     1      45.783  80.936  40.131  0.00  0.00    +0.015 A 
ATOM      6  C   UNL     1      46.487  80.800  41.330  0.00  0.00    -0.003 A 
ATOM      7  C   UNL     1      47.551  81.619  41.607  0.00  0.00    -0.020 A 
ATOM      8  C   UNL     1      47.887  82.568  40.663  0.00  0.00    -0.003 A 
ATOM      9  C   UNL     1      47.196  82.710  39.474  0.00  0.00    +0.019 A 
ENDROOT
BRANCH   1  10
ATOM     10  C   UNL     1      44.050  79.095  40.433  0.00  0.00    +0.045 C 
BRANCH  10  11
ATOM     11  C   UNL     1      44.792  77.834  40.054  0.00  0.00    +0.077 C 
BRANCH  11  13
ATOM     12  C   UNL     1      45.080  75.597  40.865  0.00  0.00    +0.090 C 
ATOM     13  N   UNL     1      44.133  76.692  40.710  0.00  0.00    -0.270 NA
ATOM     14  C   UNL     1      43.029  76.233  39.861  0.00  0.00    +0.090 C 
ENDBRANCH  11  13
ENDBRANCH  10  11
ENDBRANCH   1  10
BRANCH   7  15
ATOM     15  C   UNL     1      48.356  81.551  42.845  0.00  0.00    +0.052 C 
BRANCH  15  16
ATOM     16  C   UNL     1      49.790  81.239  42.620  0.00  0.00    +0.147 C 
ATOM     17  C   UNL     1      50.543  81.668  43.889  0.00  0.00    +0.232 C 
ATOM     18  O   UNL     1      51.863  81.806  43.444  0.00  0.00    -0.432 OA
ATOM     19  C   UNL     1      51.772  82.269  42.117  0.00  0.00    +0.421 C 
ATOM     20  O   UNL     1      52.777  82.755  41.532  0.00  0.00    -0.225 OA
ATOM     21  N   UNL     1      50.442  82.082  41.651  0.00  0.00    -0.166 NA
ENDBRANCH  15  16
ENDBRANCH   7  15
TORSDOF 5
