REMARK  Name = Zolpidem
REMARK  3 active torsions:
REMARK  status: ('A' for Active; 'I' for Inactive)
REMARK    1  A    between atoms: C_5  and  C_8
REMARK    2  A    between atoms: C_9  and  C_18
REMARK    3  A    between atoms: C_18  and  C_19
REMARK                            x       y       z     vdW  Elec       q    Type
REMARK                         _______ _______ _______ _____ _____    ______ ____
ROOT
ATOM      1  C   UNL     1      46.750  80.759  41.790  0.00  0.00    +0.095 A 
ATOM      2  C   UNL     1      45.836  81.041  40.808  0.00  0.00    +0.069 A 
ATOM      3  N   UNL     1      45.183  79.887  40.511  0.00  0.00    -0.292 N 
ATOM      4  C   UNL     1      44.191  79.642  39.611  0.00  0.00    +0.077 A 
ATOM      5  C   UNL     1      43.650  78.386  39.453  0.00  0.00    -0.004 A 
ATOM      6  C   UNL     1      44.160  77.385  40.251  0.00  0.00    +0.000 A 
ATOM      7  C   UNL     1      45.157  77.606  41.163  0.00  0.00    +0.037 A 
ATOM      8  C   UNL     1      45.674  78.906  41.284  0.00  0.00    +0.148 A 
ATOM      9  N   UNL     1      46.622  79.440  42.056  0.00  0.00    -0.227 NA
ATOM     10  C   UNL     1      42.558  78.095  38.469  0.00  0.00    +0.033 C 
ENDROOT
BRANCH   1  15
ATOM     11  C   UNL     1      50.625  84.078  44.314  0.00  0.00    +0.031 C 
ATOM     12  C   UNL     1      49.605  83.229  43.654  0.00  0.00    -0.022 A 
ATOM     13  C   UNL     1      49.967  81.956  43.245  0.00  0.00    -0.004 A 
ATOM     14  C   UNL     1      48.989  81.195  42.634  0.00  0.00    +0.001 A 
ATOM     15  C   UNL     1      47.710  81.666  42.433  0.00  0.00    +0.019 A 
ATOM     16  C   UNL     1      47.347  82.924  42.835  0.00  0.00    +0.001 A 
ATOM     17  C   UNL     1      48.332  83.690  43.450  0.00  0.00    -0.004 A 
ENDBRANCH   1  15
BRANCH   2  18
ATOM     18  C   UNL     1      45.556  82.308  40.130  0.00  0.00    +0.131 C 
BRANCH  18  19
ATOM     19  C   UNL     1      46.168  82.359  38.762  0.00  0.00    +0.232 C 
ATOM     20  O   UNL     1      45.634  81.764  37.788  0.00  0.00    -0.274 OA
ATOM     21  N   UNL     1      47.366  83.101  38.609  0.00  0.00    -0.276 N 
ATOM     22  C   UNL     1      47.925  83.416  37.306  0.00  0.00    +0.115 C 
ATOM     23  C   UNL     1      48.096  83.588  39.762  0.00  0.00    +0.115 C 
ENDBRANCH  18  19
ENDBRANCH   2  18
TORSDOF 3
