REMARK  Name = Zonisamide
REMARK  2 active torsions:
REMARK  status: ('A' for Active; 'I' for Inactive)
REMARK    1  A    between atoms: C_7  and  C_10
REMARK    2  A    between atoms: C_10  and  S_11
REMARK                            x       y       z     vdW  Elec       q    Type
REMARK                         _______ _______ _______ _____ _____    ______ ____
ROOT
ATOM      1  C   UNL     1      42.624  78.562  38.058  0.00  0.00    +0.000 A 
ATOM      2  C   UNL     1      42.064  77.785  39.077  0.00  0.00    +0.003 A 
ATOM      3  C   UNL     1      42.771  77.634  40.235  0.00  0.00    +0.040 A 
ATOM      4  C   UNL     1      44.024  78.224  40.435  0.00  0.00    +0.177 A 
ATOM      5  C   UNL     1      44.540  78.975  39.423  0.00  0.00    +0.056 A 
ATOM      6  C   UNL     1      43.853  79.148  38.238  0.00  0.00    +0.004 A 
ATOM      7  C   UNL     1      45.776  79.455  39.839  0.00  0.00    +0.126 A 
ATOM      8  N   UNL     1      45.932  78.965  41.075  0.00  0.00    -0.080 NA
ATOM      9  O   UNL     1      44.898  78.251  41.401  0.00  0.00    -0.354 OA
ENDROOT
BRANCH   7  10
ATOM     10  C   UNL     1      46.667  80.338  39.047  0.00  0.00    +0.221 C 
BRANCH  10  11
ATOM     11  S   UNL     1      46.103  82.036  39.222  0.00  0.00    +0.080 S 
ATOM     12  O   UNL     1      44.870  82.291  38.431  0.00  0.00    -0.154 OA
ATOM     13  O   UNL     1      45.719  82.215  40.682  0.00  0.00    -0.154 OA
ATOM     14  N   UNL     1      47.329  83.145  38.801  0.00  0.00    +0.035 NA
ENDBRANCH  10  11
ENDBRANCH   7  10
TORSDOF 2
