REMARK  Name = Zopiclone
REMARK  2 active torsions:
REMARK  status: ('A' for Active; 'I' for Inactive)
REMARK    1  A    between atoms: C_8  and  O_10
REMARK    2  A    between atoms: O_10  and  C_11
REMARK                            x       y       z     vdW  Elec       q    Type
REMARK                         _______ _______ _______ _____ _____    ______ ____
ROOT
ATOM      1  C   UNL     1      45.948  79.371  40.585  0.00  0.00    +0.299 C 
ATOM      2  C   UNL     1      44.811  78.985  39.678  0.00  0.00    +0.141 A 
ATOM      3  N   UNL     1      44.262  77.774  39.417  0.00  0.00    -0.239 NA
ATOM      4  C   UNL     1      43.212  77.637  38.586  0.00  0.00    +0.119 A 
ATOM      5  C   UNL     1      42.657  78.738  37.967  0.00  0.00    +0.120 A 
ATOM      6  N   UNL     1      43.208  79.937  38.229  0.00  0.00    -0.236 NA
ATOM      7  C   UNL     1      44.273  80.079  39.072  0.00  0.00    +0.154 A 
ATOM      8  C   UNL     1      45.069  81.210  39.503  0.00  0.00    +0.276 C 
ATOM      9  O   UNL     1      44.873  82.406  39.152  0.00  0.00    -0.268 OA
ATOM     10  N   UNL     1      46.108  80.783  40.383  0.00  0.00    -0.200 N 
ATOM     11  C   UNL     1      47.117  81.645  40.946  0.00  0.00    +0.141 A 
ATOM     12  N   UNL     1      48.235  81.129  41.429  0.00  0.00    -0.228 NA
ATOM     13  C   UNL     1      49.217  81.901  41.981  0.00  0.00    +0.112 A 
ATOM     14  C   UNL     1      49.055  83.269  42.044  0.00  0.00    +0.077 A 
ATOM     15  C   UNL     1      47.892  83.813  41.542  0.00  0.00    +0.016 A 
ATOM     16  C   UNL     1      46.906  82.990  40.983  0.00  0.00    +0.036 A 
ATOM     17 CL   UNL     1      50.316  84.270  42.753  0.00  0.00    -0.081 Cl
ENDROOT
BRANCH   1  18
ATOM     18  O   UNL     1      45.545  79.175  41.940  0.00  0.00    -0.412 OA
BRANCH  18  26
ATOM     19  C   UNL     1      46.620  73.064  43.168  0.00  0.00    +0.090 C 
ATOM     20  N   UNL     1      45.991  74.225  42.611  0.00  0.00    -0.269 NA
ATOM     21  C   UNL     1      46.970  75.186  42.191  0.00  0.00    +0.094 C 
ATOM     22  C   UNL     1      46.430  76.506  41.795  0.00  0.00    +0.114 C 
ATOM     23  N   UNL     1      45.125  76.810  42.298  0.00  0.00    -0.243 N 
ATOM     24  C   UNL     1      44.188  75.776  42.729  0.00  0.00    +0.114 C 
ATOM     25  C   UNL     1      45.006  74.772  43.514  0.00  0.00    +0.094 C 
ATOM     26  C   UNL     1      44.725  78.170  42.380  0.00  0.00    +0.407 C 
ATOM     27  O   UNL     1      43.608  78.468  42.862  0.00  0.00    -0.226 OA
ENDBRANCH  18  26
ENDBRANCH   1  18
TORSDOF 2
