REMARK  Name = Zotarolimus
REMARK  7 active torsions:
REMARK  status: ('A' for Active; 'I' for Inactive)
REMARK    1  A    between atoms: C_7  and  O_68
REMARK    2  A    between atoms: C_19  and  O_63
REMARK    3  A    between atoms: C_27  and  C_44
REMARK    4  A    between atoms: C_44  and  C_46
REMARK    5  A    between atoms: C_46  and  C_47
REMARK    6  A    between atoms: C_50  and  N_55
REMARK    7  A    between atoms: C_51  and  O_53
REMARK                            x       y       z     vdW  Elec       q    Type
REMARK                         _______ _______ _______ _____ _____    ______ ____
ROOT
ATOM      1  C   UNL     1      47.595  80.977  37.846  0.00  0.00    +0.006 C 
ATOM      2  C   UNL     1      47.756  80.431  39.245  0.00  0.00    +0.062 C 
ATOM      3  C   UNL     1      49.255  80.269  39.454  0.00  0.00    +0.008 C 
ATOM      4  C   UNL     1      49.694  80.632  40.832  0.00  0.00    +0.030 C 
ATOM      5  C   UNL     1      48.537  80.269  41.760  0.00  0.00    +0.121 C 
ATOM      6  C   UNL     1      49.041  80.135  43.157  0.00  0.00    +0.063 C 
ATOM      7  C   UNL     1      49.051  81.416  43.882  0.00  0.00    +0.136 C 
ATOM      8  C   UNL     1      50.346  81.930  44.379  0.00  0.00    -0.017 C 
ATOM      9  C   UNL     1      51.571  81.547  44.203  0.00  0.00    -0.006 C 
ATOM     10  C   UNL     1      52.229  80.488  43.488  0.00  0.00    -0.001 C 
ATOM     11  C   UNL     1      52.793  79.363  43.875  0.00  0.00    -0.000 C 
ATOM     12  C   UNL     1      52.997  78.729  45.138  0.00  0.00    -0.005 C 
ATOM     13  C   UNL     1      52.193  78.453  46.125  0.00  0.00    -0.026 C 
ATOM     14  C   UNL     1      50.753  78.708  46.280  0.00  0.00    +0.022 C 
ATOM     15  C   UNL     1      50.133  77.424  46.823  0.00  0.00    +0.012 C 
ATOM     16  C   UNL     1      49.656  76.508  45.724  0.00  0.00    +0.061 C 
ATOM     17  C   UNL     1      49.703  75.104  46.211  0.00  0.00    +0.180 C 
ATOM     18  O   UNL     1      50.776  74.660  46.564  0.00  0.00    -0.293 OA
ATOM     19  C   UNL     1      48.492  74.234  46.278  0.00  0.00    +0.206 C 
ATOM     20  C   UNL     1      47.978  73.922  44.875  0.00  0.00    +0.204 C 
ATOM     21  C   UNL     1      46.676  73.233  44.925  0.00  0.00    -0.015 C 
ATOM     22  C   UNL     1      45.540  73.592  44.393  0.00  0.00    -0.025 C 
ATOM     23  C   UNL     1      45.259  74.808  43.584  0.00  0.00    +0.079 C 
ATOM     24  C   UNL     1      45.981  74.681  42.297  0.00  0.00    +0.158 C 
ATOM     25  O   UNL     1      46.757  73.729  42.108  0.00  0.00    -0.296 OA
ATOM     26  C   UNL     1      45.871  75.616  41.152  0.00  0.00    +0.108 C 
ATOM     27  C   UNL     1      44.489  76.211  40.963  0.00  0.00    +0.176 C 
ATOM     28  O   UNL     1      44.683  77.481  40.442  0.00  0.00    -0.451 OA
ATOM     29  C   UNL     1      44.660  78.186  39.335  0.00  0.00    +0.335 C 
ATOM     30  O   UNL     1      45.341  77.966  38.267  0.00  0.00    -0.248 OA
ATOM     31  C   UNL     1      43.781  79.385  39.222  0.00  0.00    +0.175 C 
ATOM     32  C   UNL     1      42.526  79.041  38.410  0.00  0.00    +0.031 C 
ATOM     33  C   UNL     1      41.981  80.272  37.698  0.00  0.00    +0.004 C 
ATOM     34  C   UNL     1      42.905  80.722  36.618  0.00  0.00    +0.022 C 
ATOM     35  C   UNL     1      44.332  80.342  37.026  0.00  0.00    +0.094 C 
ATOM     36  N   UNL     1      44.364  80.484  38.481  0.00  0.00    -0.265 N 
ATOM     37  C   UNL     1      44.906  81.679  39.010  0.00  0.00    +0.289 C 
ATOM     38  O   UNL     1      44.503  82.809  38.458  0.00  0.00    -0.267 OA
ATOM     39  C   UNL     1      45.852  81.843  40.086  0.00  0.00    +0.279 C 
ATOM     40  O   UNL     1      45.389  82.503  41.106  0.00  0.00    -0.281 OA
ATOM     41  C   UNL     1      47.231  81.404  40.230  0.00  0.00    +0.279 C 
ATOM     42  O   UNL     1      47.429  81.028  41.559  0.00  0.00    -0.329 OA
ATOM     43  O   UNL     1      48.022  82.581  40.060  0.00  0.00    -0.187 OA
ATOM     44  C   UNL     1      45.542  76.074  44.334  0.00  0.00    +0.012 C 
ATOM     45  C   UNL     1      46.670  71.923  45.684  0.00  0.00    +0.029 C 
ATOM     46  O   UNL     1      48.901  73.017  44.285  0.00  0.00    -0.216 OA
ATOM     47  C   UNL     1      50.589  76.558  44.507  0.00  0.00    +0.008 C 
ATOM     48  C   UNL     1      50.600  79.827  47.315  0.00  0.00    +0.005 C 
ATOM     49  C   UNL     1      50.140  83.127  45.325  0.00  0.00    +0.029 C 
ENDROOT
BRANCH  27  50
ATOM     50  C   UNL     1      43.614  75.317  40.088  0.00  0.00    +0.041 C 
ATOM     51  C   UNL     1      44.467  75.179  38.804  0.00  0.00    +0.004 C 
BRANCH  50  52
ATOM     52  C   UNL     1      42.326  75.910  39.712  0.00  0.00    +0.004 C 
BRANCH  52  53
ATOM     53  C   UNL     1      41.779  75.629  38.362  0.00  0.00    +0.003 C 
ATOM     54  C   UNL     1      41.029  76.649  37.620  0.00  0.00    +0.002 C 
ATOM     55  C   UNL     1      39.567  76.708  38.016  0.00  0.00    +0.027 C 
ATOM     56  C   UNL     1      38.894  75.502  37.408  0.00  0.00    +0.136 C 
ATOM     57  C   UNL     1      39.820  74.338  37.413  0.00  0.00    +0.138 C 
ATOM     58  C   UNL     1      40.852  74.411  38.473  0.00  0.00    +0.032 C 
BRANCH  56  59
ATOM     59  N   UNL     1      37.696  75.265  38.173  0.00  0.00    -0.210 N 
ATOM     60  C   UNL     1      37.690  74.787  39.425  0.00  0.00    +0.221 A 
ATOM     61  N   UNL     1      36.441  74.681  39.857  0.00  0.00    -0.105 NA
ATOM     62  N   UNL     1      35.654  75.090  38.881  0.00  0.00    -0.023 NA
ATOM     63  N   UNL     1      36.423  75.439  37.869  0.00  0.00    -0.043 NA
ENDBRANCH  56  59
BRANCH  57  64
ATOM     64  O   UNL     1      40.421  74.089  36.185  0.00  0.00    -0.352 OA
ATOM     65  C   UNL     1      40.349  72.787  35.757  0.00  0.00    +0.174 C 
ENDBRANCH  57  64
ENDBRANCH  52  53
ENDBRANCH  50  52
ENDBRANCH  27  50
BRANCH  19  66
ATOM     66  O   UNL     1      47.548  74.937  47.000  0.00  0.00    -0.343 OA
ATOM     67  C   UNL     1      47.047  74.286  48.102  0.00  0.00    +0.175 C 
ENDBRANCH  19  66
BRANCH   7  68
ATOM     68  O   UNL     1      48.400  82.437  43.154  0.00  0.00    -0.349 OA
ATOM     69  C   UNL     1      48.906  83.687  43.327  0.00  0.00    +0.174 C 
ENDBRANCH   7  68
TORSDOF 7
