REMARK  Name = Zucapsacin
REMARK  9 active torsions:
REMARK  status: ('A' for Active; 'I' for Inactive)
REMARK    1  A    between atoms: C_2  and  C_4
REMARK    2  A    between atoms: C_5  and  C_6
REMARK    3  A    between atoms: C_6  and  C_7
REMARK    4  A    between atoms: C_7  and  C_8
REMARK    5  A    between atoms: C_8  and  C_9
REMARK    6  A    between atoms: C_9  and  C_10
REMARK    7  A    between atoms: N_12  and  C_13
REMARK    8  A    between atoms: C_13  and  C_14
REMARK    9  A    between atoms: C_16  and  O_21
REMARK                            x       y       z     vdW  Elec       q    Type
REMARK                         _______ _______ _______ _____ _____    ______ ____
ROOT
ATOM      1  C   UNL     1      45.069  81.463  38.587  0.00  0.00    +0.242 C 
ATOM      2  O   UNL     1      45.122  82.028  37.470  0.00  0.00    -0.273 OA
ATOM      3  N   UNL     1      44.743  80.087  38.632  0.00  0.00    -0.201 NA
ENDROOT
BRANCH   1   4
ATOM      4  C   UNL     1      45.329  82.160  39.847  0.00  0.00    +0.087 C 
BRANCH   4   5
ATOM      5  C   UNL     1      46.303  81.572  40.783  0.00  0.00    +0.010 C 
BRANCH   5   6
ATOM      6  C   UNL     1      47.732  81.648  40.395  0.00  0.00    +0.005 C 
BRANCH   6   7
ATOM      7  C   UNL     1      48.764  81.320  41.434  0.00  0.00    +0.026 C 
BRANCH   7   9
ATOM      8  C   UNL     1      49.984  82.855  43.056  0.00  0.00    -0.031 C 
ATOM      9  C   UNL     1      49.179  82.595  42.106  0.00  0.00    -0.031 C 
BRANCH   8  11
ATOM     10  C   UNL     1      49.144  84.840  44.158  0.00  0.00    +0.005 C 
ATOM     11  C   UNL     1      50.412  84.073  43.706  0.00  0.00    +0.022 C 
ATOM     12  C   UNL     1      51.313  84.034  44.882  0.00  0.00    +0.005 C 
ENDBRANCH   8  11
ENDBRANCH   7   9
ENDBRANCH   6   7
ENDBRANCH   5   6
ENDBRANCH   4   5
ENDBRANCH   1   4
BRANCH   3  13
ATOM     13  C   UNL     1      43.969  79.460  39.663  0.00  0.00    +0.142 C 
BRANCH  13  14
ATOM     14  C   UNL     1      42.950  78.536  39.144  0.00  0.00    +0.003 A 
ATOM     15  C   UNL     1      42.459  77.426  39.767  0.00  0.00    +0.038 A 
ATOM     16  C   UNL     1      41.484  76.587  39.244  0.00  0.00    +0.177 A 
ATOM     17  C   UNL     1      40.995  76.926  38.001  0.00  0.00    +0.229 A 
ATOM     18  C   UNL     1      41.464  78.031  37.346  0.00  0.00    +0.045 A 
ATOM     19  C   UNL     1      42.432  78.852  37.883  0.00  0.00    +0.001 A 
ATOM     20  O   UNL     1      40.034  76.144  37.427  0.00  0.00    -0.283 OA
BRANCH  16  21
ATOM     21  O   UNL     1      41.071  75.511  39.953  0.00  0.00    -0.468 OA
ATOM     22  C   UNL     1      41.586  74.258  40.150  0.00  0.00    +0.253 C 
ENDBRANCH  16  21
ENDBRANCH  13  14
ENDBRANCH   3  13
TORSDOF 9
