REMARK  Name = Zuclopenthixol
REMARK  5 active torsions:
REMARK  status: ('A' for Active; 'I' for Inactive)
REMARK    1  A    between atoms: N_3  and  C_25
REMARK    2  A    between atoms: N_6  and  C_7
REMARK    3  A    between atoms: C_7  and  C_8
REMARK    4  A    between atoms: C_8  and  C_9
REMARK    5  A    between atoms: C_25  and  C_26
REMARK                            x       y       z     vdW  Elec       q    Type
REMARK                         _______ _______ _______ _____ _____    ______ ____
ROOT
ATOM      1  C   UNL     1      43.255  78.307  39.131  0.00  0.00    -0.025 C 
ATOM      2  C   UNL     1      44.074  78.284  40.145  0.00  0.00    -0.003 C 
ATOM      3  C   UNL     1      43.911  77.157  41.093  0.00  0.00    +0.006 A 
ATOM      4  C   UNL     1      42.795  76.330  40.951  0.00  0.00    +0.000 A 
ATOM      5  C   UNL     1      42.540  75.294  41.868  0.00  0.00    +0.000 A 
ATOM      6  C   UNL     1      43.403  75.104  42.908  0.00  0.00    +0.001 A 
ATOM      7  C   UNL     1      44.496  75.917  43.044  0.00  0.00    +0.006 A 
ATOM      8  C   UNL     1      44.742  76.913  42.160  0.00  0.00    +0.029 A 
ATOM      9  S   UNL     1      46.204  77.855  42.386  0.00  0.00    -0.087 S 
ATOM     10  C   UNL     1      46.136  79.236  41.278  0.00  0.00    +0.029 A 
ATOM     11  C   UNL     1      45.162  79.251  40.300  0.00  0.00    +0.007 A 
ATOM     12  C   UNL     1      45.187  80.380  39.490  0.00  0.00    +0.012 A 
ATOM     13  C   UNL     1      46.128  81.408  39.652  0.00  0.00    +0.058 A 
ATOM     14  C   UNL     1      47.067  81.328  40.640  0.00  0.00    +0.012 A 
ATOM     15  C   UNL     1      47.066  80.233  41.456  0.00  0.00    +0.007 A 
ATOM     16 CL   UNL     1      46.157  82.818  38.621  0.00  0.00    -0.082 Cl
ENDROOT
BRANCH   1  17
ATOM     17  C   UNL     1      41.828  78.241  38.856  0.00  0.00    +0.043 C 
BRANCH  17  18
ATOM     18  C   UNL     1      41.596  77.120  37.758  0.00  0.00    +0.077 C 
BRANCH  18  24
ATOM     19  C   UNL     1      40.288  75.237  37.500  0.00  0.00    +0.090 C 
ATOM     20  C   UNL     1      38.889  74.713  37.462  0.00  0.00    +0.090 C 
ATOM     21  N   UNL     1      38.241  75.219  36.246  0.00  0.00    -0.268 NA
ATOM     22  C   UNL     1      38.281  76.648  36.242  0.00  0.00    +0.090 C 
ATOM     23  C   UNL     1      39.531  77.271  36.702  0.00  0.00    +0.090 C 
ATOM     24  N   UNL     1      40.192  76.672  37.850  0.00  0.00    -0.270 NA
BRANCH  21  25
ATOM     25  C   UNL     1      38.689  74.524  35.099  0.00  0.00    +0.108 C 
BRANCH  25  26
ATOM     26  C   UNL     1      37.792  73.477  34.525  0.00  0.00    +0.199 C 
ATOM     27  O   UNL     1      36.636  73.332  35.228  0.00  0.00    -0.219 OA
ENDBRANCH  25  26
ENDBRANCH  21  25
ENDBRANCH  18  24
ENDBRANCH  17  18
ENDBRANCH   1  17
TORSDOF 5
