REMARK  Name = Zuranolone
REMARK  4 active torsions:
REMARK  status: ('A' for Active; 'I' for Inactive)
REMARK    1  A    between atoms: C_18  and  C_19
REMARK    2  A    between atoms: C_19  and  C_21
REMARK    3  A    between atoms: C_21  and  N_22
REMARK    4  A    between atoms: C_24  and  C_27
REMARK                            x       y       z     vdW  Elec       q    Type
REMARK                         _______ _______ _______ _____ _____    ______ ____
ROOT
ATOM      1  C   UNL     1      40.407  74.742  38.333  0.00  0.00    +0.033 C 
ATOM      2  C   UNL     1      40.889  75.931  39.141  0.00  0.00    +0.127 C 
ATOM      3  C   UNL     1      41.964  75.489  40.076  0.00  0.00    +0.030 C 
ATOM      4  C   UNL     1      42.743  76.607  40.698  0.00  0.00    +0.003 C 
ATOM      5  C   UNL     1      43.188  77.573  39.647  0.00  0.00    +0.000 C 
ATOM      6  C   UNL     1      41.929  78.114  38.982  0.00  0.00    +0.002 C 
ATOM      7  C   UNL     1      41.359  77.001  38.163  0.00  0.00    +0.030 C 
ATOM      8  C   UNL     1      42.122  79.394  38.282  0.00  0.00    +0.000 C 
ATOM      9  C   UNL     1      43.509  79.755  37.914  0.00  0.00    +0.000 C 
ATOM     10  C   UNL     1      44.560  79.436  38.907  0.00  0.00    +0.000 C 
ATOM     11  C   UNL     1      43.975  78.726  40.139  0.00  0.00    +0.000 C 
ATOM     12  C   UNL     1      45.031  78.315  41.100  0.00  0.00    +0.000 C 
ATOM     13  C   UNL     1      46.054  79.387  41.397  0.00  0.00    +0.000 C 
ATOM     14  C   UNL     1      46.562  79.993  40.143  0.00  0.00    +0.007 C 
ATOM     15  C   UNL     1      45.321  80.572  39.443  0.00  0.00    +0.000 C 
ATOM     16  C   UNL     1      45.915  81.530  38.498  0.00  0.00    +0.000 C 
ATOM     17  C   UNL     1      46.824  82.316  39.461  0.00  0.00    +0.007 C 
ATOM     18  C   UNL     1      47.446  81.152  40.251  0.00  0.00    +0.060 C 
ATOM     19  C   UNL     1      47.197  78.926  39.244  0.00  0.00    +0.000 C 
ATOM     20  O   UNL     1      39.775  76.448  39.803  0.00  0.00    -0.226 OA
ENDROOT
BRANCH  18  21
ATOM     21  C   UNL     1      47.842  81.568  41.603  0.00  0.00    +0.175 C 
ATOM     22  O   UNL     1      47.318  82.394  42.294  0.00  0.00    -0.294 OA
BRANCH  21  23
ATOM     23  C   UNL     1      49.042  80.885  42.195  0.00  0.00    +0.191 C 
BRANCH  23  24
ATOM     24  N   UNL     1      49.999  81.802  42.727  0.00  0.00    -0.241 N 
ATOM     25  C   UNL     1      49.926  82.462  43.887  0.00  0.00    +0.107 A 
ATOM     26  C   UNL     1      51.058  83.233  44.002  0.00  0.00    +0.108 A 
ATOM     27  C   UNL     1      51.818  83.024  42.881  0.00  0.00    +0.132 A 
ATOM     28  N   UNL     1      51.124  82.144  42.142  0.00  0.00    -0.167 NA
BRANCH  26  29
ATOM     29  C   UNL     1      51.381  84.113  45.118  0.00  0.00    +0.104 C 
ATOM     30  N   UNL     1      51.636  84.812  46.000  0.00  0.00    -0.191 NA
ENDBRANCH  26  29
ENDBRANCH  23  24
ENDBRANCH  21  23
ENDBRANCH  18  21
TORSDOF 4
